<?xml version="1.0" encoding="UTF-8"?>

<!-- generated on 2025-08-25 22:28:21 by Eclipse SUMO netconvert Version 1.18.0
<configuration xmlns:xsi="http://www.w3.org/2001/XMLSchema-instance" xsi:noNamespaceSchemaLocation="http://sumo.dlr.de/xsd/netconvertConfiguration.xsd">

    <input>
        <osm-files value="./CheshireBridgeRd.osm"/>
    </input>

    <output>
        <output-file value="./CheshireBridgeRd.net.xml"/>
    </output>

    <projection>
        <proj.utm value="true"/>
    </projection>

</configuration>
-->

<net version="1.16" junctionCornerDetail="5" limitTurnSpeed="5.50" xmlns:xsi="http://www.w3.org/2001/XMLSchema-instance" xsi:noNamespaceSchemaLocation="http://sumo.dlr.de/xsd/net_file.xsd">

    <location netOffset="-744573.44,-3744834.81" convBoundary="0.00,0.00,947.97,969.35" origBoundary="-84.357512,33.815403,-84.347371,33.824086" projParameter="+proj=utm +zone=16 +ellps=WGS84 +datum=WGS84 +units=m +no_defs"/>

    <type id="highway.footway" priority="1" numLanes="1" speed="2.78" allow="pedestrian" oneway="1" width="2.00"/>
    <type id="highway.residential" priority="3" numLanes="1" speed="13.89" disallow="tram rail_urban rail rail_electric rail_fast ship" oneway="0"/>
    <type id="highway.secondary" priority="11" numLanes="1" speed="27.78" disallow="tram rail_urban rail rail_electric rail_fast ship" oneway="0"/>
    <type id="highway.service" priority="1" numLanes="1" speed="5.56" allow="pedestrian delivery bicycle" oneway="0"/>

    <edge id=":10017820148_0" function="internal">
        <lane id=":10017820148_0_0" index="0" allow="pedestrian delivery bicycle" speed="5.56" length="0.31" shape="505.39,338.06 505.30,338.35"/>
    </edge>
    <edge id=":10017820148_1" function="internal">
        <lane id=":10017820148_1_0" index="0" allow="pedestrian delivery bicycle" speed="5.56" length="1.05" shape="505.53,335.16 504.49,334.99"/>
    </edge>
    <edge id=":10017820149_0" function="internal">
        <lane id=":10017820149_0_0" index="0" allow="pedestrian delivery bicycle" speed="5.02" length="3.25" shape="519.76,332.58 519.46,331.50 519.10,330.69 518.68,330.15 518.19,329.89"/>
    </edge>
    <edge id=":10017820149_1" function="internal">
        <lane id=":10017820149_1_0" index="0" allow="pedestrian delivery bicycle" speed="5.56" length="6.47" shape="519.76,332.58 519.32,330.71 519.11,329.35 519.34,328.06 520.18,326.40"/>
    </edge>
    <edge id=":10017820149_2" function="internal">
        <lane id=":10017820149_2_0" index="0" allow="pedestrian delivery bicycle" speed="3.65" length="4.67" shape="519.76,332.58 520.29,331.24 520.98,330.68 521.85,330.90 522.89,331.90"/>
    </edge>
    <edge id=":10017820149_3" function="internal">
        <lane id=":10017820149_3_0" index="0" allow="pedestrian delivery bicycle" speed="5.56" length="4.00" shape="522.91,328.07 522.43,329.09 522.37,329.89 522.58,330.74 522.89,331.90"/>
    </edge>
    <edge id=":10017820149_4" function="internal">
        <lane id=":10017820149_4_0" index="0" allow="pedestrian delivery bicycle" speed="5.56" length="5.45" shape="522.91,328.07 522.02,329.15 520.94,329.81 519.66,330.06 518.19,329.89"/>
    </edge>
    <edge id=":10017820149_5" function="internal">
        <lane id=":10017820149_5_0" index="0" allow="pedestrian delivery bicycle" speed="3.65" length="4.67" shape="522.91,328.07 521.60,328.68 520.71,328.60 520.24,327.84 520.18,326.40"/>
    </edge>
    <edge id=":10017820149_6" function="internal">
        <lane id=":10017820149_6_0" index="0" allow="pedestrian delivery bicycle" speed="3.48" length="1.39" shape="518.94,326.78 519.35,326.84 519.69,326.79 519.97,326.65 520.18,326.40"/>
    </edge>
    <edge id=":10017820149_7" function="internal">
        <lane id=":10017820149_7_0" index="0" allow="pedestrian delivery bicycle" speed="5.56" length="6.81" shape="518.94,326.78 520.30,327.37 521.42,328.42 522.28,329.93 522.89,331.90"/>
    </edge>
    <edge id=":10017820149_8" function="internal">
        <lane id=":10017820149_8_0" index="0" allow="pedestrian delivery bicycle" speed="3.65" length="4.67" shape="518.94,326.78 519.92,327.84 520.12,328.71 519.55,329.39 518.19,329.89"/>
    </edge>
    <edge id=":10017820150_0" function="internal">
        <lane id=":10017820150_0_0" index="0" allow="pedestrian delivery bicycle" speed="5.56" length="2.59" shape="503.65,332.76 505.95,331.56"/>
    </edge>
    <edge id=":10017820150_1" function="internal">
        <lane id=":10017820150_1_0" index="0" allow="pedestrian delivery bicycle" speed="5.56" length="1.97" shape="504.50,328.71 502.79,329.68"/>
    </edge>
    <edge id=":10017820151_0" function="internal">
        <lane id=":10017820151_0_0" index="0" allow="pedestrian delivery bicycle" speed="5.56" length="1.82" shape="509.72,330.99 511.49,330.57"/>
    </edge>
    <edge id=":10017820151_1" function="internal">
        <lane id=":10017820151_1_0" index="0" allow="pedestrian delivery bicycle" speed="5.56" length="1.69" shape="510.63,327.49 508.98,327.87"/>
    </edge>
    <edge id=":10017820152_0" function="internal">
        <lane id=":10017820152_0_0" index="0" allow="pedestrian delivery bicycle" speed="4.70" length="1.18" shape="502.91,327.15 503.35,326.06"/>
    </edge>
    <edge id=":10017820152_1" function="internal">
        <lane id=":10017820152_1_0" index="0" allow="pedestrian delivery bicycle" speed="4.83" length="1.26" shape="500.81,324.12 501.07,323.94 501.32,323.99 501.62,324.10 501.99,324.09"/>
    </edge>
    <edge id=":10017820153_0" function="internal">
        <lane id=":10017820153_0_0" index="0" allow="pedestrian delivery bicycle" speed="5.56" length="0.59" shape="508.94,324.86 508.73,325.41"/>
    </edge>
    <edge id=":10017820153_1" function="internal">
        <lane id=":10017820153_1_0" index="0" allow="pedestrian delivery bicycle" speed="5.56" length="2.99" shape="507.81,322.34 508.55,322.12 509.30,321.95 510.03,321.94 510.70,322.19"/>
    </edge>
    <edge id=":10017820154_0" function="internal">
        <lane id=":10017820154_0_0" index="0" allow="pedestrian delivery bicycle" speed="5.07" length="1.74" shape="513.03,319.50 512.74,319.16 512.72,318.81 512.79,318.40 512.76,317.88"/>
    </edge>
    <edge id=":10017820154_1" function="internal">
        <lane id=":10017820154_1_0" index="0" allow="pedestrian delivery bicycle" speed="4.09" length="1.00" shape="515.87,317.12 514.89,316.90"/>
    </edge>
    <edge id=":10017820155_0" function="internal">
        <lane id=":10017820155_0_0" index="0" allow="pedestrian delivery bicycle" speed="5.56" length="0.68" shape="511.59,313.09 510.92,313.20"/>
    </edge>
    <edge id=":10017820155_1" function="internal">
        <lane id=":10017820155_1_0" index="0" allow="pedestrian delivery bicycle" speed="5.56" length="1.87" shape="514.01,314.06 514.70,312.33"/>
    </edge>
    <edge id=":10017820156_0" function="internal">
        <lane id=":10017820156_0_0" index="0" allow="pedestrian delivery bicycle" speed="5.56" length="2.16" shape="517.31,315.61 517.90,317.69"/>
    </edge>
    <edge id=":10017820156_1" function="internal">
        <lane id=":10017820156_1_0" index="0" allow="pedestrian delivery bicycle" speed="5.56" length="2.37" shape="521.02,316.98 520.38,314.70"/>
    </edge>
    <edge id=":10017820157_0" function="internal">
        <lane id=":10017820157_0_0" index="0" allow="pedestrian delivery bicycle" speed="5.56" length="2.69" shape="516.41,311.07 516.71,313.74"/>
    </edge>
    <edge id=":10017820157_1" function="internal">
        <lane id=":10017820157_1_0" index="0" allow="pedestrian delivery bicycle" speed="5.56" length="3.01" shape="519.89,313.36 519.54,310.37"/>
    </edge>
    <edge id=":10017820158_0" function="internal">
        <lane id=":10017820158_0_0" index="0" allow="pedestrian delivery bicycle" speed="5.56" length="8.41" shape="519.81,324.32 518.61,322.32 517.18,321.44 515.41,320.82 513.20,319.62"/>
    </edge>
    <edge id=":10017820158_1" function="internal">
        <lane id=":10017820158_1_0" index="0" allow="pedestrian delivery bicycle" speed="5.56" length="8.87" shape="519.81,324.32 518.91,321.85 518.43,320.11 518.03,318.35 517.37,315.80"/>
    </edge>
    <edge id=":10017820158_2" function="internal">
        <lane id=":10017820158_2_0" index="0" allow="pedestrian delivery bicycle" speed="5.56" length="9.88" shape="519.81,324.32 519.89,323.34 520.57,321.52 521.85,318.84 523.73,315.32"/>
    </edge>
    <edge id=":10017820158_3" function="internal">
        <lane id=":10017820158_3_0" index="0" allow="pedestrian delivery bicycle" speed="3.65" length="4.68" shape="519.81,324.32 520.07,322.90 520.64,322.21 521.54,322.26 522.75,323.04"/>
    </edge>
    <edge id=":10017820158_4" function="internal">
        <lane id=":10017820158_4_0" index="0" allow="pedestrian delivery bicycle" speed="5.56" length="7.25" shape="526.53,316.86 522.75,323.04"/>
    </edge>
    <edge id=":10017820158_5" function="internal">
        <lane id=":10017820158_5_0" index="0" allow="pedestrian delivery bicycle" speed="5.56" length="15.97" shape="526.53,316.86 523.88,320.34 520.77,321.96 517.21,321.72 513.20,319.62"/>
    </edge>
    <edge id=":10017820158_6" function="internal">
        <lane id=":10017820158_6_0" index="0" allow="pedestrian delivery bicycle" speed="5.56" length="15.03" shape="526.53,316.86 523.75,320.79 521.30,321.93 519.17,320.26 517.37,315.80"/>
    </edge>
    <edge id=":10017820158_7" function="internal">
        <lane id=":10017820158_7_0" index="0" allow="pedestrian delivery bicycle" speed="3.65" length="4.67" shape="526.53,316.86 525.25,317.53 524.36,317.49 523.85,316.76 523.73,315.32"/>
    </edge>
    <edge id=":10017820158_8" function="internal">
        <lane id=":10017820158_8_0" index="0" allow="pedestrian delivery bicycle" speed="4.30" length="5.40" shape="520.44,314.90 521.09,316.51 521.85,317.12 522.73,316.72 523.73,315.32"/>
    </edge>
    <edge id=":10017820158_9" function="internal">
        <lane id=":10017820158_9_0" index="0" allow="pedestrian delivery bicycle" speed="5.56" length="8.48" shape="520.44,314.90 521.06,317.34 521.44,319.02 521.89,320.68 522.75,323.04"/>
    </edge>
    <edge id=":10017820158_10" function="internal">
        <lane id=":10017820158_10_0" index="0" allow="pedestrian delivery bicycle" speed="5.56" length="15.47" shape="520.44,314.90 521.29,319.83 520.36,322.26 517.67,322.19 513.20,319.62"/>
    </edge>
    <edge id=":10017820158_11" function="internal">
        <lane id=":10017820158_11_0" index="0" allow="pedestrian delivery bicycle" speed="3.65" length="4.67" shape="520.44,314.90 520.01,316.27 519.36,316.88 518.48,316.73 517.37,315.80"/>
    </edge>
    <edge id=":10017820158_12" function="internal">
        <lane id=":10017820158_12_0" index="0" allow="pedestrian delivery bicycle" speed="4.00" length="4.64" shape="515.06,317.01 516.44,317.83 517.29,317.90 517.60,317.22 517.37,315.80"/>
    </edge>
    <edge id=":10017820158_13" function="internal">
        <lane id=":10017820158_13_0" index="0" allow="pedestrian delivery bicycle" speed="5.56" length="10.36" shape="515.06,317.01 517.68,318.39 520.00,318.57 522.01,317.55 523.73,315.32"/>
    </edge>
    <edge id=":10017820158_14" function="internal">
        <lane id=":10017820158_14_0" index="0" allow="pedestrian delivery bicycle" speed="5.56" length="10.09" shape="515.06,317.01 517.68,318.51 519.72,319.39 521.35,320.58 522.75,323.04"/>
    </edge>
    <edge id=":10017820158_15" function="internal">
        <lane id=":10017820158_15_0" index="0" allow="pedestrian delivery bicycle" speed="3.65" length="4.67" shape="515.06,317.01 515.57,318.36 515.43,319.24 514.64,319.66 513.20,319.62"/>
    </edge>
    <edge id=":10017820159_0" function="internal">
        <lane id=":10017820159_0_0" index="0" allow="pedestrian delivery bicycle" speed="5.56" length="0.74" shape="522.25,309.99 522.76,310.52"/>
    </edge>
    <edge id=":10017820159_1" function="internal">
        <lane id=":10017820159_1_0" index="0" allow="pedestrian delivery bicycle" speed="5.56" length="0.57" shape="525.37,308.68 525.43,308.82 525.40,308.93 525.35,309.06 525.36,309.22"/>
    </edge>
    <edge id=":10017820161_0" function="internal">
        <lane id=":10017820161_0_0" index="0" allow="pedestrian delivery bicycle" speed="5.56" length="16.94" shape="498.09,343.82 496.40,340.16 494.05,336.39 491.70,332.63 490.04,328.96"/>
    </edge>
    <edge id=":10017820161_1" function="internal">
        <lane id=":10017820161_1_0" index="0" allow="pedestrian delivery bicycle" speed="5.56" length="20.50" shape="498.09,343.82 496.91,338.31 496.95,333.21 498.21,328.53 500.69,324.28"/>
    </edge>
    <edge id=":10017820161_2" function="internal">
        <lane id=":10017820161_2_0" index="0" allow="pedestrian delivery bicycle" speed="5.56" length="17.95" shape="498.09,343.82 497.28,339.04 498.05,334.95 500.40,331.53 504.32,328.80"/>
    </edge>
    <edge id=":10017820161_3" function="internal">
        <lane id=":10017820161_3_0" index="0" allow="pedestrian delivery bicycle" speed="5.56" length="14.42" shape="498.09,343.82 497.44,339.75 498.43,336.95 501.06,335.41 505.33,335.15"/>
    </edge>
    <edge id=":10017820161_4" function="internal">
        <lane id=":10017820161_4_0" index="0" allow="pedestrian delivery bicycle" speed="3.84" length="4.71" shape="498.09,343.82 497.96,342.37 498.34,341.55 499.22,341.37 500.61,341.81"/>
    </edge>
    <edge id=":10017820161_5" function="internal">
        <lane id=":10017820161_5_0" index="0" allow="pedestrian delivery bicycle" speed="5.15" length="8.28" shape="505.10,338.34 501.92,338.35 500.11,338.93 499.67,340.08 500.61,341.81"/>
    </edge>
    <edge id=":10017820161_6" function="internal">
        <lane id=":10017820161_6_0" index="0" allow="pedestrian delivery bicycle" speed="5.56" length="18.92" shape="505.10,338.34 499.47,337.41 495.08,335.54 491.94,332.72 490.04,328.96"/>
    </edge>
    <edge id=":10017820161_7" function="internal">
        <lane id=":10017820161_7_0" index="0" allow="pedestrian delivery bicycle" speed="5.56" length="20.62" shape="505.10,338.34 499.44,337.07 496.82,334.31 497.23,330.04 500.69,324.28"/>
    </edge>
    <edge id=":10017820161_8" function="internal">
        <lane id=":10017820161_8_0" index="0" allow="pedestrian delivery bicycle" speed="5.56" length="20.12" shape="505.10,338.34 498.62,337.28 496.33,335.34 498.23,332.51 504.32,328.80"/>
    </edge>
    <edge id=":10017820161_9" function="internal">
        <lane id=":10017820161_9_0" index="0" allow="pedestrian delivery bicycle" speed="3.65" length="4.67" shape="505.10,338.34 503.96,337.45 503.62,336.63 504.08,335.86 505.33,335.15"/>
    </edge>
    <edge id=":10017820161_10" function="internal">
        <lane id=":10017820161_10_0" index="0" allow="pedestrian delivery bicycle" speed="4.59" length="7.10" shape="505.77,331.65 503.46,333.03 502.62,334.07 503.24,334.77 505.33,335.15"/>
    </edge>
    <edge id=":10017820161_11" function="internal">
        <lane id=":10017820161_11_0" index="0" allow="pedestrian delivery bicycle" speed="5.56" length="13.43" shape="505.77,331.65 501.90,334.09 499.74,336.59 499.32,339.17 500.61,341.81"/>
    </edge>
    <edge id=":10017820161_12" function="internal">
        <lane id=":10017820161_12_0" index="0" allow="pedestrian delivery bicycle" speed="5.56" length="18.71" shape="505.77,331.65 499.94,333.94 495.37,334.26 492.07,332.60 490.04,328.96"/>
    </edge>
    <edge id=":10017820161_13" function="internal">
        <lane id=":10017820161_13_0" index="0" allow="pedestrian delivery bicycle" speed="5.56" length="12.26" shape="505.77,331.65 502.68,332.00 500.43,330.29 499.59,327.42 500.69,324.28"/>
    </edge>
    <edge id=":10017820161_14" function="internal">
        <lane id=":10017820161_14_0" index="0" allow="pedestrian delivery bicycle" speed="3.65" length="4.67" shape="505.77,331.65 504.34,331.48 503.62,330.95 503.62,330.05 504.32,328.80"/>
    </edge>
    <edge id=":10017820161_15" function="internal">
        <lane id=":10017820161_15_0" index="0" allow="pedestrian delivery bicycle" speed="4.40" length="6.60" shape="503.23,326.22 501.84,328.30 501.56,329.42 502.38,329.59 504.32,328.80"/>
    </edge>
    <edge id=":10017820161_16" function="internal">
        <lane id=":10017820161_16_0" index="0" allow="pedestrian delivery bicycle" speed="5.56" length="12.72" shape="503.23,326.22 500.98,329.90 500.58,332.61 502.03,334.36 505.33,335.15"/>
    </edge>
    <edge id=":10017820161_17" function="internal">
        <lane id=":10017820161_17_0" index="0" allow="pedestrian delivery bicycle" speed="5.56" length="17.07" shape="503.23,326.22 500.30,330.82 498.88,334.95 498.99,338.62 500.61,341.81"/>
    </edge>
    <edge id=":10017820161_18" function="internal">
        <lane id=":10017820161_18_0" index="0" allow="pedestrian delivery bicycle" speed="5.56" length="18.39" shape="503.23,326.22 498.64,331.33 494.91,333.48 492.04,332.69 490.04,328.96"/>
    </edge>
    <edge id=":10017820161_19" function="internal">
        <lane id=":10017820161_19_0" index="0" allow="pedestrian delivery bicycle" speed="3.65" length="4.67" shape="503.23,326.22 501.87,326.69 500.99,326.52 500.60,325.72 500.69,324.28"/>
    </edge>
    <edge id=":10017820161_20" function="internal">
        <lane id=":10017820161_20_0" index="0" allow="pedestrian delivery bicycle" speed="5.56" length="10.47" shape="493.10,328.03 494.08,329.46 495.67,329.31 497.87,327.58 500.69,324.28"/>
    </edge>
    <edge id=":10017820161_21" function="internal">
        <lane id=":10017820161_21_0" index="0" allow="pedestrian delivery bicycle" speed="5.56" length="12.95" shape="493.10,328.03 494.44,330.18 496.75,331.02 500.05,330.56 504.32,328.80"/>
    </edge>
    <edge id=":10017820161_22" function="internal">
        <lane id=":10017820161_22_0" index="0" allow="pedestrian delivery bicycle" speed="5.56" length="15.05" shape="493.10,328.03 494.59,330.87 497.12,333.00 500.70,334.42 505.33,335.15"/>
    </edge>
    <edge id=":10017820161_23" function="internal">
        <lane id=":10017820161_23_0" index="0" allow="pedestrian delivery bicycle" speed="5.56" length="15.77" shape="493.10,328.03 494.44,331.66 496.22,335.25 498.32,338.69 500.61,341.81"/>
    </edge>
    <edge id=":10017820161_24" function="internal">
        <lane id=":10017820161_24_0" index="0" allow="pedestrian delivery bicycle" speed="3.65" length="4.67" shape="493.10,328.03 492.68,329.41 492.03,330.03 491.15,329.87 490.04,328.96"/>
    </edge>
    <edge id=":10017820163_0" function="internal">
        <lane id=":10017820163_0_0" index="0" allow="pedestrian delivery bicycle" speed="5.56" length="5.36" shape="501.72,355.64 500.18,350.51"/>
    </edge>
    <edge id=":10017820163_1" function="internal">
        <lane id=":10017820163_1_0" index="0" allow="pedestrian delivery bicycle" speed="3.65" length="1.44" shape="501.72,355.64 502.16,354.27"/>
    </edge>
    <edge id=":10017820163_4" function="internal">
        <lane id=":10017820163_4_0" index="0" allow="pedestrian delivery bicycle" speed="3.65" length="3.23" shape="502.16,354.27 502.81,353.66 503.69,353.82 504.80,354.75"/>
    </edge>
    <edge id=":10017820163_2" function="internal">
        <lane id=":10017820163_2_0" index="0" allow="pedestrian delivery bicycle" speed="5.56" length="5.43" shape="503.23,349.55 504.80,354.75"/>
    </edge>
    <edge id=":10017820163_3" function="internal">
        <lane id=":10017820163_3_0" index="0" allow="pedestrian delivery bicycle" speed="3.65" length="1.44" shape="503.23,349.55 502.83,350.94"/>
    </edge>
    <edge id=":10017820163_5" function="internal">
        <lane id=":10017820163_5_0" index="0" allow="pedestrian delivery bicycle" speed="3.65" length="3.23" shape="502.83,350.94 502.18,351.56 501.30,351.41 500.18,350.51"/>
    </edge>
    <edge id=":10017820164_0" function="internal">
        <lane id=":10017820164_0_0" index="0" disallow="tram rail_urban rail rail_electric rail_fast ship" speed="27.78" length="9.42" shape="509.85,359.85 501.01,363.10"/>
    </edge>
    <edge id=":10017820164_1" function="internal">
        <lane id=":10017820164_1_0" index="0" allow="pedestrian delivery bicycle" speed="6.81" length="3.33" shape="509.85,359.85 507.00,360.46 506.59,360.37"/>
    </edge>
    <edge id=":10017820164_7" function="internal">
        <lane id=":10017820164_7_0" index="0" allow="pedestrian delivery bicycle" speed="6.81" length="7.18" shape="506.59,360.37 504.71,359.98 502.96,358.41 501.76,355.76"/>
    </edge>
    <edge id=":10017820164_2" function="internal">
        <lane id=":10017820164_2_0" index="0" allow="pedestrian delivery bicycle" speed="4.97" length="5.09" shape="504.83,354.87 505.41,356.15 506.26,356.91 507.37,357.14 508.75,356.85"/>
    </edge>
    <edge id=":10017820164_3" function="internal">
        <lane id=":10017820164_3_0" index="0" allow="pedestrian delivery bicycle" speed="7.04" length="10.19" shape="504.83,354.87 505.26,357.70 504.77,360.01 503.35,361.81 501.01,363.10"/>
    </edge>
    <edge id=":10017820164_4" function="internal">
        <lane id=":10017820164_4_0" index="0" allow="pedestrian delivery bicycle" speed="3.65" length="4.67" shape="504.83,354.87 504.40,356.25 503.74,356.85 502.86,356.69 501.76,355.76"/>
    </edge>
    <edge id=":10017820164_5" function="internal">
        <lane id=":10017820164_5_0" index="0" allow="pedestrian delivery bicycle" speed="5.28" length="5.29" shape="499.90,360.09 501.07,359.44 501.77,358.50 502.00,357.27 501.76,355.76"/>
    </edge>
    <edge id=":10017820164_6" function="internal">
        <lane id=":10017820164_6_0" index="0" disallow="tram rail_urban rail rail_electric rail_fast ship" speed="27.78" length="9.42" shape="499.90,360.09 508.75,356.85"/>
    </edge>
    <edge id=":10017820165_0" function="internal">
        <lane id=":10017820165_0_0" index="0" disallow="tram rail_urban rail rail_electric rail_fast ship" speed="27.78" length="9.39" shape="531.60,351.87 522.79,355.09"/>
    </edge>
    <edge id=":10017820165_1" function="internal">
        <lane id=":10017820165_1_0" index="0" allow="pedestrian delivery bicycle" speed="6.85" length="3.27" shape="531.60,351.87 528.85,352.45 528.40,352.36"/>
    </edge>
    <edge id=":10017820165_7" function="internal">
        <lane id=":10017820165_7_0" index="0" allow="pedestrian delivery bicycle" speed="6.85" length="6.98" shape="528.40,352.36 526.58,352.00 524.81,350.52 523.52,348.01"/>
    </edge>
    <edge id=":10017820165_2" function="internal">
        <lane id=":10017820165_2_0" index="0" allow="pedestrian delivery bicycle" speed="5.02" length="5.02" shape="526.55,346.97 527.18,348.20 528.05,348.92 529.16,349.14 530.51,348.86"/>
    </edge>
    <edge id=":10017820165_3" function="internal">
        <lane id=":10017820165_3_0" index="0" allow="pedestrian delivery bicycle" speed="6.91" length="10.16" shape="526.55,346.97 527.08,349.72 526.64,351.99 525.20,353.78 522.79,355.09"/>
    </edge>
    <edge id=":10017820165_4" function="internal">
        <lane id=":10017820165_4_0" index="0" allow="pedestrian delivery bicycle" speed="3.65" length="4.67" shape="526.55,346.97 526.18,348.37 525.56,349.00 524.67,348.89 523.52,348.01"/>
    </edge>
    <edge id=":10017820165_5" function="internal">
        <lane id=":10017820165_5_0" index="0" allow="pedestrian delivery bicycle" speed="5.11" length="5.08" shape="521.68,352.09 522.88,351.44 523.58,350.54 523.80,349.40 523.52,348.01"/>
    </edge>
    <edge id=":10017820165_6" function="internal">
        <lane id=":10017820165_6_0" index="0" disallow="tram rail_urban rail rail_electric rail_fast ship" speed="27.78" length="9.40" shape="521.68,352.09 530.51,348.86"/>
    </edge>
    <edge id=":10017820166_0" function="internal">
        <lane id=":10017820166_0_0" index="0" allow="pedestrian delivery bicycle" speed="5.56" length="5.70" shape="523.37,347.57 522.83,345.96 522.49,344.86 522.22,343.73 521.85,342.08"/>
    </edge>
    <edge id=":10017820166_1" function="internal">
        <lane id=":10017820166_1_0" index="0" allow="pedestrian delivery bicycle" speed="3.65" length="1.44" shape="523.37,347.57 523.74,346.17"/>
    </edge>
    <edge id=":10017820166_4" function="internal">
        <lane id=":10017820166_4_0" index="0" allow="pedestrian delivery bicycle" speed="3.65" length="3.23" shape="523.74,346.17 524.36,345.53 525.25,345.65 526.40,346.53"/>
    </edge>
    <edge id=":10017820166_2" function="internal">
        <lane id=":10017820166_2_0" index="0" allow="pedestrian delivery bicycle" speed="5.56" length="5.34" shape="524.98,341.39 525.32,342.94 525.58,343.99 525.89,345.03 526.40,346.53"/>
    </edge>
    <edge id=":10017820166_3" function="internal">
        <lane id=":10017820166_3_0" index="0" allow="pedestrian delivery bicycle" speed="3.65" length="1.44" shape="524.98,341.39 524.45,342.73"/>
    </edge>
    <edge id=":10017820166_5" function="internal">
        <lane id=":10017820166_5_0" index="0" allow="pedestrian delivery bicycle" speed="3.65" length="3.23" shape="524.45,342.73 523.76,343.30 522.89,343.08 521.85,342.08"/>
    </edge>
    <edge id=":10017820167_0" function="internal">
        <lane id=":10017820167_0_0" index="0" allow="pedestrian delivery bicycle" speed="5.56" length="5.33" shape="536.68,321.53 535.15,321.93 534.12,322.27 533.13,322.71 531.70,323.39"/>
    </edge>
    <edge id=":10017820167_1" function="internal">
        <lane id=":10017820167_1_0" index="0" allow="pedestrian delivery bicycle" speed="3.65" length="1.44" shape="536.68,321.53 535.32,321.05"/>
    </edge>
    <edge id=":10017820167_4" function="internal">
        <lane id=":10017820167_4_0" index="0" allow="pedestrian delivery bicycle" speed="3.65" length="3.23" shape="535.32,321.05 534.73,320.37 534.92,319.50 535.89,318.42"/>
    </edge>
    <edge id=":10017820167_2" function="internal">
        <lane id=":10017820167_2_0" index="0" allow="pedestrian delivery bicycle" speed="5.56" length="5.95" shape="530.33,320.50 531.92,319.74 533.03,319.26 534.18,318.88 535.89,318.42"/>
    </edge>
    <edge id=":10017820167_3" function="internal">
        <lane id=":10017820167_3_0" index="0" allow="pedestrian delivery bicycle" speed="3.65" length="1.44" shape="530.33,320.50 531.75,320.70"/>
    </edge>
    <edge id=":10017820167_5" function="internal">
        <lane id=":10017820167_5_0" index="0" allow="pedestrian delivery bicycle" speed="3.65" length="3.23" shape="531.75,320.70 532.46,321.26 532.44,322.15 531.70,323.39"/>
    </edge>
    <edge id=":10017820168_0" function="internal">
        <lane id=":10017820168_0_0" index="0" allow="pedestrian delivery bicycle" speed="5.09" length="5.06" shape="541.25,323.54 540.71,322.29 539.89,321.50 538.78,321.19 537.38,321.35"/>
    </edge>
    <edge id=":10017820168_1" function="internal">
        <lane id=":10017820168_1_0" index="0" disallow="tram rail_urban rail rail_electric rail_fast ship" speed="27.78" length="8.27" shape="541.25,323.54 539.10,315.55"/>
    </edge>
    <edge id=":10017820168_2" function="internal">
        <lane id=":10017820168_2_0" index="0" disallow="tram rail_urban rail rail_electric rail_fast ship" speed="27.78" length="8.26" shape="542.19,314.72 544.34,322.70"/>
    </edge>
    <edge id=":10017820168_3" function="internal">
        <lane id=":10017820168_3_0" index="0" allow="pedestrian delivery bicycle" speed="6.57" length="2.70" shape="542.19,314.72 542.40,317.03 542.27,317.39"/>
    </edge>
    <edge id=":10017820168_7" function="internal">
        <lane id=":10017820168_7_0" index="0" allow="pedestrian delivery bicycle" speed="6.57" length="6.64" shape="542.27,317.39 541.67,318.91 540.00,320.34 537.38,321.35"/>
    </edge>
    <edge id=":10017820168_4" function="internal">
        <lane id=":10017820168_4_0" index="0" allow="pedestrian delivery bicycle" speed="4.65" length="4.15" shape="536.60,318.24 537.89,317.79 538.74,317.19 539.14,316.44 539.10,315.55"/>
    </edge>
    <edge id=":10017820168_5" function="internal">
        <lane id=":10017820168_5_0" index="0" allow="pedestrian delivery bicycle" speed="6.90" length="10.16" shape="536.60,318.24 539.38,317.94 541.60,318.58 543.25,320.17 544.34,322.70"/>
    </edge>
    <edge id=":10017820168_6" function="internal">
        <lane id=":10017820168_6_0" index="0" allow="pedestrian delivery bicycle" speed="3.65" length="4.67" shape="536.60,318.24 537.96,318.72 538.54,319.40 538.35,320.27 537.38,321.35"/>
    </edge>
    <edge id=":10017820169_0" function="internal">
        <lane id=":10017820169_0_0" index="0" allow="pedestrian delivery bicycle" speed="5.56" length="2.54" shape="526.57,314.14 526.63,316.69"/>
    </edge>
    <edge id=":10017820169_1" function="internal">
        <lane id=":10017820169_1_0" index="0" allow="pedestrian delivery bicycle" speed="5.56" length="0.43" shape="523.82,315.14 523.47,314.91"/>
    </edge>
    <edge id=":10017820170_0" function="internal">
        <lane id=":10017820170_0_0" index="0" allow="pedestrian delivery bicycle" speed="5.56" length="2.49" shape="513.96,335.17 513.54,335.72 513.10,335.94 512.55,336.03 511.81,336.19"/>
    </edge>
    <edge id=":10017820170_1" function="internal">
        <lane id=":10017820170_1_0" index="0" allow="pedestrian delivery bicycle" speed="5.56" length="0.55" shape="510.92,333.11 511.17,333.61"/>
    </edge>
    <edge id=":10017820171_0" function="internal">
        <lane id=":10017820171_0_0" index="0" allow="pedestrian delivery bicycle" speed="3.65" length="4.67" shape="484.26,283.30 483.78,284.66 483.11,285.24 482.23,285.05 481.16,284.08"/>
    </edge>
    <edge id=":10017820172_0" function="internal">
        <lane id=":10017820172_0_0" index="0" allow="pedestrian delivery bicycle" speed="3.65" length="4.67" shape="480.27,294.17 480.70,292.79 481.35,292.18 482.23,292.33 483.34,293.25"/>
    </edge>
    <edge id=":10017820173_0" function="internal">
        <lane id=":10017820173_0_0" index="0" allow="pedestrian delivery bicycle" speed="5.56" length="9.33" shape="456.61,265.31 447.48,267.27"/>