<?xml version="1.0" encoding="UTF-8"?>

<!-- generated on 2025-09-02 19:23:59 by Eclipse SUMO netconvert Version 1.18.0
<configuration xmlns:xsi="http://www.w3.org/2001/XMLSchema-instance" xsi:noNamespaceSchemaLocation="http://sumo.dlr.de/xsd/netconvertConfiguration.xsd">

    <input>
        <sumo-net-file value="CheshireBridgeRdFiltered.net.xml"/>
    </input>

    <output>
        <plain-output-prefix value="plain"/>
    </output>

    <processing>
        <geometry.min-radius.fix.railways value="false"/>
        <geometry.max-grade.fix value="false"/>
        <offset.disable-normalization value="true"/>
        <lefthand value="0"/>
    </processing>

    <junctions>
        <no-turnarounds value="true"/>
        <junctions.corner-detail value="5"/>
        <junctions.limit-turn-speed value="5.50"/>
        <rectangular-lane-cut value="0"/>
    </junctions>

    <pedestrian>
        <walkingareas value="0"/>
    </pedestrian>

</configuration>
-->

<nodes version="1.16" xmlns:xsi="http://www.w3.org/2001/XMLSchema-instance" xsi:noNamespaceSchemaLocation="http://sumo.dlr.de/xsd/nodes_file.xsd">
    <location netOffset="-744573.44,-3744834.81" convBoundary="0.00,0.00,831.22,834.86" origBoundary="-84.357512,33.815403,-84.347371,33.824086" projParameter="+proj=utm +zone=16 +ellps=WGS84 +datum=WGS84 +units=m +no_defs"/>

    <node id="10017820164" x="504.67" y="360.05" type="priority"/>
    <node id="10017820165" x="526.58" y="351.99" type="priority"/>
    <node id="10017820168" x="541.59" y="318.63" type="priority"/>
    <node id="10017820187" x="539.63" y="311.36" type="priority"/>
    <node id="10017820190" x="593.83" y="326.62" type="priority"/>
    <node id="10017820191" x="544.18" y="328.23" type="priority"/>
    <node id="10017820193" x="568.01" y="336.49" type="priority"/>
    <node id="10017820204" x="533.98" y="289.59" type="priority"/>
    <node id="12526932424" x="726.00" y="276.25" type="traffic_light" tl="12526932424"/>
    <node id="12526932432" x="701.85" y="285.58" type="traffic_light" tl="12526932432"/>
    <node id="12771746366" x="782.18" y="254.55" type="priority"/>
    <node id="12843798686" x="558.29" y="340.23" type="traffic_light" tl="12843798686"/>
    <node id="12843798693" x="551.05" y="352.92" type="traffic_light" tl="12843798693"/>
    <node id="12843798695" x="537.51" y="348.01" type="traffic_light" tl="12843798695"/>
    <node id="12843798697" x="545.80" y="334.25" type="traffic_light" tl="12843798697"/>
    <node id="12843841501" x="568.77" y="572.06" type="traffic_light" tl="12843841501"/>
    <node id="12843892804" x="827.39" y="238.97" type="priority"/>
    <node id="1585265617" x="161.53" y="0.00" type="priority"/>
    <node id="1811065813" x="606.98" y="321.49" type="priority"/>
    <node id="3471591926" x="564.92" y="402.63" type="priority"/>
    <node id="3471591927" x="576.86" y="482.04" type="priority"/>
    <node id="3471591928" x="831.22" y="237.78" type="priority"/>
    <node id="3471591929" x="716.42" y="279.95" type="traffic_light" tl="3471591929"/>
    <node id="3471591930" x="561.25" y="389.60" type="priority"/>
    <node id="3471592133" x="462.06" y="375.66" type="priority"/>
    <node id="3471592134" x="569.40" y="420.14" type="priority"/>
    <node id="3471592135" x="573.71" y="535.92" type="priority"/>
    <node id="5416361686" x="441.58" y="214.97" type="priority"/>
    <node id="5416361702" x="523.44" y="251.22" type="priority"/>
    <node id="5416361704" x="496.21" y="206.48" type="priority"/>
    <node id="5416361711" x="448.04" y="380.79" type="priority"/>
    <node id="5416361713" x="401.03" y="220.83" type="priority"/>
    <node id="5416362075" x="499.67" y="161.92" type="priority"/>
    <node id="5416413631" x="652.87" y="304.81" type="priority"/>
    <node id="5424188064" x="401.63" y="396.96" type="priority"/>
    <node id="5424381092" x="527.06" y="264.65" type="priority"/>
    <node id="5424381095" x="515.81" y="222.86" type="priority"/>
    <node id="5424381427" x="505.96" y="185.84" type="priority"/>
    <node id="5424381429" x="462.77" y="211.52" type="priority"/>
    <node id="6008648462" x="503.77" y="205.34" type="priority"/>
    <node id="6008648471" x="340.05" y="427.44" type="priority"/>
    <node id="6697101069" x="798.87" y="470.88" type="priority"/>
    <node id="69180042" x="22.67" y="359.10" type="priority"/>
    <node id="69324206" x="0.00" y="555.78" type="priority"/>
    <node id="69324212" x="41.90" y="537.52" type="priority"/>
    <node id="69324219" x="337.73" y="421.14" type="priority"/>
    <node id="69324223" x="405.84" y="395.37" type="priority"/>
    <node id="69324227" x="548.43" y="344.03" type="traffic_light" tl="69324227"/>
    <node id="69452701" x="775.05" y="566.59" type="priority"/>
    <node id="69506222" x="510.81" y="204.28" type="priority"/>
    <node id="69506241" x="569.92" y="563.75" type="traffic_light" tl="69506241"/>
    <node id="69506251" x="529.22" y="834.86" type="priority"/>
    <node id="69580597" x="329.08" y="231.68" type="priority"/>
    <node id="69606645" x="336.73" y="286.93" type="priority"/>
    <node id="9750322699" x="799.52" y="501.23" type="priority"/>
    <node id="9750322700" x="826.67" y="500.17" type="priority"/>
</nodes>
