<?xml version="1.0" encoding="UTF-8"?>

<!-- generated on 2025-09-22 00:52:25 by Eclipse SUMO netconvert Version 1.18.0
<configuration xmlns:xsi="http://www.w3.org/2001/XMLSchema-instance" xsi:noNamespaceSchemaLocation="http://sumo.dlr.de/xsd/netconvertConfiguration.xsd">

    <input>
        <node-files value="output_nodes_intersection.xml"/>
        <edge-files value="output_edges_intersection.xml"/>
        <type-files value="plain.typ.xml"/>
    </input>

    <output>
        <output-file value="testnet.net.xml"/>
    </output>

</configuration>
-->

<net version="1.16" junctionCornerDetail="5" limitTurnSpeed="5.50" xmlns:xsi="http://www.w3.org/2001/XMLSchema-instance" xsi:noNamespaceSchemaLocation="http://sumo.dlr.de/xsd/net_file.xsd">

    <location netOffset="0.00,0.00" convBoundary="0.00,0.00,831.22,834.86" origBoundary="0.00,0.00,831.22,834.86" projParameter="!"/>

    <type id="highway.residential" priority="3" numLanes="1" speed="13.89" disallow="tram rail_urban rail rail_electric rail_fast ship" oneway="0"/>
    <type id="highway.secondary" priority="11" numLanes="1" speed="27.78" disallow="tram rail_urban rail rail_electric rail_fast ship" oneway="0"/>

    <edge id=":10017820164_0" function="internal">
        <lane id=":10017820164_0_0" index="0" disallow="tram rail_urban rail rail_electric rail_fast ship" speed="27.78" length="0.10" shape="505.10,361.60 505.08,361.60"/>
    </edge>
    <edge id=":10017820164_1" function="internal">
        <lane id=":10017820164_1_0" index="0" disallow="tram rail_urban rail rail_electric rail_fast ship" speed="27.78" length="0.10" shape="503.98,358.60 503.99,358.60"/>
    </edge>
    <edge id=":10017820190_0" function="internal">
        <lane id=":10017820190_0_0" index="0" disallow="tram rail_urban rail rail_electric rail_fast ship" speed="27.78" length="0.31" shape="594.55,328.06 594.26,328.17"/>
    </edge>
    <edge id=":10017820190_1" function="internal">
        <lane id=":10017820190_1_0" index="0" disallow="tram rail_urban rail rail_electric rail_fast ship" speed="27.78" length="0.29" shape="593.12,325.18 593.39,325.08"/>
    </edge>
    <edge id=":10017820204_0" function="internal">
        <lane id=":10017820204_0_0" index="0" disallow="tram rail_urban rail rail_electric rail_fast ship" speed="27.78" length="0.26" shape="532.47,290.13 532.40,289.88"/>
    </edge>
    <edge id=":10017820204_1" function="internal">
        <lane id=":10017820204_1_0" index="0" disallow="tram rail_urban rail rail_electric rail_fast ship" speed="27.78" length="0.31" shape="535.48,289.02 535.56,289.33"/>
    </edge>
    <edge id=":12526932424_0" function="internal">
        <lane id=":12526932424_0_0" index="0" disallow="tram rail_urban rail rail_electric rail_fast ship" speed="27.78" length="0.10" shape="726.58,277.74 726.58,277.74"/>
    </edge>
    <edge id=":12526932424_1" function="internal">
        <lane id=":12526932424_1_0" index="0" disallow="tram rail_urban rail rail_electric rail_fast ship" speed="27.78" length="0.10" shape="725.42,274.76 725.42,274.76"/>
    </edge>
    <edge id=":12526932432_0" function="internal">
        <lane id=":12526932432_0_0" index="0" disallow="tram rail_urban rail rail_electric rail_fast ship" speed="27.78" length="0.10" shape="702.43,287.07 702.43,287.07"/>
    </edge>
    <edge id=":12526932432_1" function="internal">
        <lane id=":12526932432_1_0" index="0" disallow="tram rail_urban rail rail_electric rail_fast ship" speed="27.78" length="0.10" shape="701.27,284.09 701.27,284.09"/>
    </edge>
    <edge id=":12771746366_0" function="internal">
        <lane id=":12771746366_0_0" index="0" disallow="tram rail_urban rail rail_electric rail_fast ship" speed="27.78" length="8.00" shape="786.49,254.60 779.03,257.48"/>
    </edge>
    <edge id=":12771746366_1" function="internal">
        <lane id=":12771746366_1_0" index="0" disallow="tram rail_urban rail rail_electric rail_fast ship" speed="27.78" length="8.40" shape="777.87,254.50 779.99,253.15 781.03,251.56 782.07,249.98 784.18,248.63"/>
        <lane id=":12771746366_1_1" index="1" disallow="tram rail_urban rail rail_electric rail_fast ship" speed="27.78" length="8.40" shape="777.87,254.50 785.34,251.62"/>
    </edge>
    <edge id=":12843841501_0" function="internal">
        <lane id=":12843841501_0_0" index="0" disallow="tram rail_urban rail rail_electric rail_fast ship" speed="27.78" length="0.30" shape="570.38,572.13 570.33,572.43"/>
    </edge>
    <edge id=":12843841501_1" function="internal">
        <lane id=":12843841501_1_0" index="0" disallow="tram rail_urban rail rail_electric rail_fast ship" speed="27.78" length="0.30" shape="567.16,571.99 567.21,571.69"/>
    </edge>
    <edge id=":12843892804_0" function="internal">
        <lane id=":12843892804_0_0" index="0" disallow="tram rail_urban rail rail_electric rail_fast ship" speed="27.78" length="0.31" shape="828.01,240.45 827.72,240.54"/>
    </edge>
    <edge id=":12843892804_1" function="internal">
        <lane id=":12843892804_1_0" index="0" disallow="tram rail_urban rail rail_electric rail_fast ship" speed="27.78" length="0.30" shape="825.83,234.43 826.11,234.34"/>
        <lane id=":12843892804_1_1" index="1" disallow="tram rail_urban rail rail_electric rail_fast ship" speed="27.78" length="0.30" shape="826.77,237.49 827.06,237.40"/>
    </edge>
    <edge id=":1585265617_0" function="internal">
        <lane id=":1585265617_0_0" index="0" disallow="tram rail_urban rail rail_electric rail_fast ship" speed="3.65" length="4.67" shape="160.50,1.23 160.10,-0.16 160.30,-1.03 161.12,-1.38 162.56,-1.23"/>
    </edge>
    <edge id=":1811065813_0" function="internal">
        <lane id=":1811065813_0_0" index="0" disallow="tram rail_urban rail rail_electric rail_fast ship" speed="27.78" length="0.10" shape="607.48,323.01 607.56,322.98"/>
    </edge>
    <edge id=":1811065813_1" function="internal">
        <lane id=":1811065813_1_0" index="0" disallow="tram rail_urban rail rail_electric rail_fast ship" speed="27.78" length="0.10" shape="606.40,320.00 606.48,319.97"/>
    </edge>
    <edge id=":3471591926_0" function="internal">
        <lane id=":3471591926_0_0" index="0" disallow="tram rail_urban rail rail_electric rail_fast ship" speed="27.78" length="0.23" shape="563.40,403.16 563.34,402.93"/>
    </edge>
    <edge id=":3471591926_1" function="internal">
        <lane id=":3471591926_1_0" index="0" disallow="tram rail_urban rail rail_electric rail_fast ship" speed="27.78" length="0.31" shape="566.42,402.07 566.50,402.36"/>
    </edge>
    <edge id=":3471591927_0" function="internal">
        <lane id=":3471591927_0_0" index="0" disallow="tram rail_urban rail rail_electric rail_fast ship" speed="27.78" length="0.33" shape="575.28,482.32 575.25,481.99"/>
    </edge>
    <edge id=":3471591927_1" function="internal">
        <lane id=":3471591927_1_0" index="0" disallow="tram rail_urban rail rail_electric rail_fast ship" speed="27.78" length="0.29" shape="578.45,481.81 578.47,482.10"/>
    </edge>
    <edge id=":3471591928_0" function="internal">
        <lane id=":3471591928_0_0" index="0" disallow="tram rail_urban rail rail_electric rail_fast ship" speed="3.65" length="4.67" shape="830.75,236.25 832.13,236.66 832.75,237.31 832.60,238.19 831.69,239.31"/>
    </edge>
    <edge id=":3471591929_0" function="internal">
        <lane id=":3471591929_0_0" index="0" disallow="tram rail_urban rail rail_electric rail_fast ship" speed="27.78" length="0.10" shape="717.00,281.44 717.00,281.44"/>
    </edge>
    <edge id=":3471591929_1" function="internal">
        <lane id=":3471591929_1_0" index="0" disallow="tram rail_urban rail rail_electric rail_fast ship" speed="27.78" length="0.10" shape="715.84,278.46 715.84,278.46"/>
    </edge>
    <edge id=":3471591930_0" function="internal">
        <lane id=":3471591930_0_0" index="0" disallow="tram rail_urban rail rail_electric rail_fast ship" speed="27.78" length="0.30" shape="559.75,390.18 559.67,389.88"/>
    </edge>
    <edge id=":3471591930_1" function="internal">
        <lane id=":3471591930_1_0" index="0" disallow="tram rail_urban rail rail_electric rail_fast ship" speed="27.78" length="0.29" shape="562.75,389.03 562.83,389.31"/>
    </edge>
    <edge id=":3471592133_0" function="internal">
        <lane id=":3471592133_0_0" index="0" disallow="tram rail_urban rail rail_electric rail_fast ship" speed="27.78" length="0.10" shape="462.61,377.16 462.61,377.16"/>
    </edge>
    <edge id=":3471592133_1" function="internal">
        <lane id=":3471592133_1_0" index="0" disallow="tram rail_urban rail rail_electric rail_fast ship" speed="27.78" length="0.10" shape="461.51,374.16 461.51,374.16"/>
    </edge>
    <edge id=":3471592134_0" function="internal">
        <lane id=":3471592134_0_0" index="0" disallow="tram rail_urban rail rail_electric rail_fast ship" speed="27.78" length="0.10" shape="567.83,420.45 567.85,420.54"/>
    </edge>
    <edge id=":3471592134_1" function="internal">
        <lane id=":3471592134_1_0" index="0" disallow="tram rail_urban rail rail_electric rail_fast ship" speed="27.78" length="0.10" shape="570.95,419.74 570.97,419.83"/>
    </edge>
    <edge id=":3471592135_0" function="internal">
        <lane id=":3471592135_0_0" index="0" disallow="tram rail_urban rail rail_electric rail_fast ship" speed="27.78" length="0.29" shape="575.31,535.96 575.28,536.25"/>
    </edge>
    <edge id=":3471592135_1" function="internal">
        <lane id=":3471592135_1_0" index="0" disallow="tram rail_urban rail rail_electric rail_fast ship" speed="27.78" length="0.16" shape="572.11,535.82 572.13,535.65"/>
    </edge>
    <edge id=":5416361686_0" function="internal">
        <lane id=":5416361686_0_0" index="0" disallow="tram rail_urban rail rail_electric rail_fast ship" speed="13.89" length="0.31" shape="441.98,216.53 441.67,216.57"/>
    </edge>
    <edge id=":5416361686_1" function="internal">
        <lane id=":5416361686_1_0" index="0" disallow="tram rail_urban rail rail_electric rail_fast ship" speed="13.89" length="0.26" shape="441.21,213.41 441.46,213.37"/>
    </edge>
    <edge id=":5416361702_0" function="internal">
        <lane id=":5416361702_0_0" index="0" disallow="tram rail_urban rail rail_electric rail_fast ship" speed="27.78" length="0.10" shape="521.90,251.64 521.89,251.64"/>
    </edge>
    <edge id=":5416361702_1" function="internal">
        <lane id=":5416361702_1_0" index="0" disallow="tram rail_urban rail rail_electric rail_fast ship" speed="27.78" length="0.10" shape="524.99,250.80 524.98,250.80"/>
    </edge>
    <edge id=":5416361704_0" function="internal">
        <lane id=":5416361704_0_0" index="0" disallow="tram rail_urban rail rail_electric rail_fast ship" speed="13.89" length="0.10" shape="496.45,208.06 496.45,208.06"/>
    </edge>
    <edge id=":5416361704_1" function="internal">
        <lane id=":5416361704_1_0" index="0" disallow="tram rail_urban rail rail_electric rail_fast ship" speed="13.89" length="0.10" shape="495.97,204.90 495.97,204.90"/>
    </edge>
    <edge id=":5416361711_0" function="internal">
        <lane id=":5416361711_0_0" index="0" disallow="tram rail_urban rail rail_electric rail_fast ship" speed="27.78" length="0.30" shape="448.73,382.24 448.45,382.34"/>
    </edge>
    <edge id=":5416361711_1" function="internal">
        <lane id=":5416361711_1_0" index="0" disallow="tram rail_urban rail rail_electric rail_fast ship" speed="27.78" length="0.30" shape="447.35,379.34 447.63,379.24"/>
    </edge>
    <edge id=":5416361713_0" function="internal">
        <lane id=":5416361713_0_0" index="0" disallow="tram rail_urban rail rail_electric rail_fast ship" speed="13.89" length="0.29" shape="401.41,222.39 401.12,222.43"/>
    </edge>
    <edge id=":5416361713_1" function="internal">
        <lane id=":5416361713_1_0" index="0" disallow="tram rail_urban rail rail_electric rail_fast ship" speed="13.89" length="0.31" shape="400.64,219.27 400.95,219.23"/>
    </edge>
    <edge id=":5416362075_0" function="internal">
        <lane id=":5416362075_0_0" index="0" disallow="tram rail_urban rail rail_electric rail_fast ship" speed="3.65" length="4.67" shape="498.12,162.33 498.59,160.96 499.26,160.37 500.14,160.56 501.22,161.51"/>
    </edge>
    <edge id=":5416413631_0" function="internal">
        <lane id=":5416413631_0_0" index="0" disallow="tram rail_urban rail rail_electric rail_fast ship" speed="27.78" length="0.31" shape="653.60,306.24 653.31,306.36"/>
    </edge>
    <edge id=":5416413631_1" function="internal">
        <lane id=":5416413631_1_0" index="0" disallow="tram rail_urban rail rail_electric rail_fast ship" speed="27.78" length="0.26" shape="652.16,303.37 652.41,303.27"/>
    </edge>
    <edge id=":5424188064_0" function="internal">
        <lane id=":5424188064_0_0" index="0" disallow="tram rail_urban rail rail_electric rail_fast ship" speed="27.78" length="1.26" shape="400.88,398.95 402.06,398.51"/>
    </edge>
    <edge id=":5424188064_1" function="internal">
        <lane id=":5424188064_1_0" index="0" disallow="tram rail_urban rail rail_electric rail_fast ship" speed="27.78" length="1.26" shape="400.92,395.52 399.75,395.96"/>
    </edge>
    <edge id=":5424381092_0" function="internal">
        <lane id=":5424381092_0_0" index="0" disallow="tram rail_urban rail rail_electric rail_fast ship" speed="27.78" length="0.31" shape="525.56,265.22 525.48,264.92"/>
    </edge>
    <edge id=":5424381092_1" function="internal">
        <lane id=":5424381092_1_0" index="0" disallow="tram rail_urban rail rail_electric rail_fast ship" speed="27.78" length="0.29" shape="528.57,264.09 528.64,264.37"/>
    </edge>
    <edge id=":5424381095_0" function="internal">
        <lane id=":5424381095_0_0" index="0" disallow="tram rail_urban rail rail_electric rail_fast ship" speed="27.78" length="0.10" shape="514.26,223.28 514.26,223.28"/>
    </edge>
    <edge id=":5424381095_1" function="internal">
        <lane id=":5424381095_1_0" index="0" disallow="tram rail_urban rail rail_electric rail_fast ship" speed="27.78" length="0.10" shape="517.36,222.44 517.36,222.44"/>
    </edge>
    <edge id=":5424381427_0" function="internal">
        <lane id=":5424381427_0_0" index="0" disallow="tram rail_urban rail rail_electric rail_fast ship" speed="27.78" length="0.10" shape="504.41,186.25 504.41,186.25"/>
    </edge>
    <edge id=":5424381427_1" function="internal">
        <lane id=":5424381427_1_0" index="0" disallow="tram rail_urban rail rail_electric rail_fast ship" speed="27.78" length="0.10" shape="507.51,185.43 507.51,185.43"/>
    </edge>
    <edge id=":5424381429_0" function="internal">
        <lane id=":5424381429_0_0" index="0" disallow="tram rail_urban rail rail_electric rail_fast ship" speed="13.89" length="0.27" shape="463.15,213.08 462.88,213.12"/>
    </edge>
    <edge id=":5424381429_1" function="internal">
        <lane id=":5424381429_1_0" index="0" disallow="tram rail_urban rail rail_electric rail_fast ship" speed="13.89" length="0.31" shape="462.37,209.96 462.68,209.92"/>
    </edge>
    <edge id=":6008648462_0" function="internal">
        <lane id=":6008648462_0_0" index="0" disallow="tram rail_urban rail rail_electric rail_fast ship" speed="13.89" length="0.32" shape="503.69,206.97 504.01,206.92"/>
    </edge>
    <edge id=":6008648462_1" function="internal">
        <lane id=":6008648462_1_0" index="0" disallow="tram rail_urban rail rail_electric rail_fast ship" speed="13.89" length="0.32" shape="503.53,203.76 503.21,203.81"/>
    </edge>
    <edge id=":6008648471_0" function="internal">
        <lane id=":6008648471_0_0" index="0" disallow="tram rail_urban rail rail_electric rail_fast ship" speed="13.89" length="0.13" shape="338.60,428.13 338.65,428.26"/>
    </edge>
    <edge id=":6008648471_1" function="internal">
        <lane id=":6008648471_1_0" index="0" disallow="tram rail_urban rail rail_electric rail_fast ship" speed="13.89" length="0.13" shape="341.65,427.15 341.60,427.03"/>
    </edge>
    <edge id=":6697101069_0" function="internal">
        <lane id=":6697101069_0_0" index="0" disallow="tram rail_urban rail rail_electric rail_fast ship" speed="3.65" length="4.67" shape="797.27,470.91 798.05,469.69 798.84,469.28 799.65,469.67 800.47,470.85"/>
    </edge>
    <edge id=":69180042_0" function="internal">
        <lane id=":69180042_0_0" index="0" disallow="tram rail_urban rail rail_electric rail_fast ship" speed="3.65" length="4.67" shape="23.06,360.65 21.70,360.17 21.12,359.49 21.31,358.62 22.28,357.55"/>
    </edge>
    <edge id=":69324206_0" function="internal">
        <lane id=":69324206_0_0" index="0" disallow="tram rail_urban rail rail_electric rail_fast ship" speed="3.65" length="4.67" shape="0.64,557.24 -0.78,557.00 -1.46,556.42 -1.42,555.53 -0.64,554.32"/>
    </edge>
    <edge id=":69324212_0" function="internal">
        <lane id=":69324212_0_0" index="0" disallow="tram rail_urban rail rail_electric rail_fast ship" speed="6.87" length="9.51" shape="44.04,544.91 42.47,542.71 40.64,541.44 38.53,541.12 36.16,541.73"/>
    </edge>
    <edge id=":69324212_1" function="internal">
        <lane id=":69324212_1_0" index="0" disallow="tram rail_urban rail rail_electric rail_fast ship" speed="7.84" length="14.57" shape="44.04,544.91 42.66,541.10 42.89,537.87 44.75,535.22 48.23,533.15"/>
    </edge>
    <edge id=":69324212_2" function="internal">
        <lane id=":69324212_2_0" index="0" disallow="tram rail_urban rail rail_electric rail_fast ship" speed="3.65" length="4.67" shape="44.04,544.91 44.18,543.47 44.69,542.74 45.59,542.72 46.86,543.40"/>
    </edge>
    <edge id=":69324212_3" function="internal">
        <lane id=":69324212_3_0" index="0" disallow="tram rail_urban rail rail_electric rail_fast ship" speed="6.31" length="9.04" shape="49.46,536.10 47.30,537.39 46.15,539.03 46.00,541.04 46.86,543.40"/>
    </edge>
    <edge id=":69324212_4" function="internal">
        <lane id=":69324212_4_0" index="0" disallow="tram rail_urban rail rail_electric rail_fast ship" speed="27.78" length="14.44" shape="49.46,536.10 36.16,541.73"/>
    </edge>
    <edge id=":69324212_5" function="internal">
        <lane id=":69324212_5_0" index="0" disallow="tram rail_urban rail rail_electric rail_fast ship" speed="3.65" length="1.44" shape="49.46,536.10 48.04,535.82"/>
    </edge>
    <edge id=":69324212_9" function="internal">
        <lane id=":69324212_9_0" index="0" disallow="tram rail_urban rail rail_electric rail_fast ship" speed="3.65" length="3.23" shape="48.04,535.82 47.37,535.24 47.43,534.35 48.23,533.15"/>
    </edge>
    <edge id=":69324212_6" function="internal">
        <lane id=":69324212_6_0" index="0" disallow="tram rail_urban rail rail_electric rail_fast ship" speed="27.78" length="14.48" shape="34.89,538.79 48.23,533.15"/>
    </edge>
    <edge id=":69324212_7" function="internal">
        <lane id=":69324212_7_0" index="0" disallow="tram rail_urban rail rail_electric rail_fast ship" speed="8.30" length="3.97" shape="34.89,538.79 38.54,537.83 38.74,537.86"/>
    </edge>
    <edge id=":69324212_8" function="internal">
        <lane id=":69324212_8_0" index="0" disallow="tram rail_urban rail rail_electric rail_fast ship" speed="3.65" length="1.44" shape="34.89,538.79 36.31,539.05"/>
    </edge>
    <edge id=":69324212_10" function="internal">
        <lane id=":69324212_10_0" index="0" disallow="tram rail_urban rail rail_electric rail_fast ship" speed="8.30" length="10.39" shape="38.74,537.86 41.75,538.28 44.52,540.14 46.86,543.40"/>
    </edge>
    <edge id=":69324212_11" function="internal">
        <lane id=":69324212_11_0" index="0" disallow="tram rail_urban rail rail_electric rail_fast ship" speed="3.65" length="3.23" shape="36.31,539.05 37.00,539.63 36.94,540.52 36.16,541.73"/>
    </edge>
    <edge id=":69324219_0" function="internal">
        <lane id=":69324219_0_0" index="0" disallow="tram rail_urban rail rail_electric rail_fast ship" speed="6.38" length="8.69" shape="338.58,428.07 337.46,426.07 335.92,424.92 333.94,424.62 331.53,425.19"/>
    </edge>
    <edge id=":69324219_1" function="internal">
        <lane id=":69324219_1_0" index="0" disallow="tram rail_urban rail rail_electric rail_fast ship" speed="7.94" length="13.85" shape="338.58,428.07 337.82,424.43 338.45,421.40 340.47,418.95 343.87,417.11"/>
    </edge>
    <edge id=":69324219_2" function="internal">
        <lane id=":69324219_2_0" index="0" disallow="tram rail_urban rail rail_electric rail_fast ship" speed="3.65" length="4.67" shape="338.58,428.07 338.91,426.67 339.53,426.01 340.41,426.11 341.58,426.96"/>
    </edge>
    <edge id=":69324219_3" function="internal">
        <lane id=":69324219_3_0" index="0" disallow="tram rail_urban rail rail_electric rail_fast ship" speed="6.43" length="8.73" shape="345.00,420.10 342.83,421.27 341.54,422.80 341.12,424.70 341.58,426.96"/>
    </edge>
    <edge id=":69324219_4" function="internal">
        <lane id=":69324219_4_0" index="0" disallow="tram rail_urban rail rail_electric rail_fast ship" speed="27.78" length="14.40" shape="345.00,420.10 331.53,425.19"/>
    </edge>
    <edge id=":69324219_5" function="internal">
        <lane id=":69324219_5_0" index="0" disallow="tram rail_urban rail rail_electric rail_fast ship" speed="3.65" length="1.44" shape="345.00,420.10 343.60,419.77"/>
    </edge>
    <edge id=":69324219_9" function="internal">
        <lane id=":69324219_9_0" index="0" disallow="tram rail_urban rail rail_electric rail_fast ship" speed="3.65" length="3.23" shape="343.60,419.77 342.94,419.17 343.03,418.28 343.87,417.11"/>
    </edge>
    <edge id=":69324219_6" function="internal">
        <lane id=":69324219_6_0" index="0" disallow="tram rail_urban rail rail_electric rail_fast ship" speed="27.78" length="14.40" shape="330.40,422.19 343.87,417.11"/>
    </edge>
    <edge id=":69324219_7" function="internal">
        <lane id=":69324219_7_0" index="0" disallow="tram rail_urban rail rail_electric rail_fast ship" speed="7.90" length="4.13" shape="330.40,422.19 334.20,421.32 334.44,421.36"/>
    </edge>
    <edge id=":69324219_8" function="internal">
        <lane id=":69324219_8_0" index="0" disallow="tram rail_urban rail rail_electric rail_fast ship" speed="3.65" length="1.44" shape="330.40,422.19 331.81,422.52"/>
    </edge>
    <edge id=":69324219_10" function="internal">
        <lane id=":69324219_10_0" index="0" disallow="tram rail_urban rail rail_electric rail_fast ship" speed="7.90" length="9.74" shape="334.44,421.36 337.33,421.83 339.79,423.71 341.58,426.96"/>
    </edge>
    <edge id=":69324219_11" function="internal">
        <lane id=":69324219_11_0" index="0" disallow="tram rail_urban rail rail_electric rail_fast ship" speed="3.65" length="3.23" shape="331.81,422.52 332.47,423.13 332.37,424.02 331.53,425.19"/>
    </edge>
    <edge id=":69324223_0" function="internal">
        <lane id=":69324223_0_0" index="0" disallow="tram rail_urban rail rail_electric rail_fast ship" speed="27.78" length="12.60" shape="412.98,394.77 401.07,398.88"/>
    </edge>
    <edge id=":69324223_1" function="internal">
        <lane id=":69324223_1_0" index="0" disallow="tram rail_urban rail rail_electric rail_fast ship" speed="8.20" length="3.78" shape="412.98,394.77 409.24,395.39"/>
    </edge>
    <edge id=":69324223_2" function="internal">
        <lane id=":69324223_2_0" index="0" disallow="tram rail_urban rail rail_electric rail_fast ship" speed="3.65" length="1.44" shape="412.98,394.77 411.59,394.37"/>
    </edge>
    <edge id=":69324223_9" function="internal">
        <lane id=":69324223_9_0" index="0" disallow="tram rail_urban rail rail_electric rail_fast ship" speed="8.20" length="10.37" shape="409.24,395.39 406.11,394.67 403.58,392.62 401.66,389.22"/>
    </edge>
    <edge id=":69324223_10" function="internal">
        <lane id=":69324223_10_0" index="0" disallow="tram rail_urban rail rail_electric rail_fast ship" speed="3.65" length="3.23" shape="411.59,394.37 410.96,393.73 411.10,392.85 412.00,391.72"/>
    </edge>
    <edge id=":69324223_3" function="internal">
        <lane id=":69324223_3_0" index="0" disallow="tram rail_urban rail rail_electric rail_fast ship" speed="6.75" length="9.26" shape="404.63,388.03 405.89,390.27 407.54,391.63 409.58,392.12 412.00,391.72"/>
    </edge>
    <edge id=":69324223_4" function="internal">
        <lane id=":69324223_4_0" index="0" disallow="tram rail_urban rail rail_electric rail_fast ship" speed="7.64" length="13.04" shape="404.63,388.03 405.64,391.81 405.39,394.87 403.86,397.23 401.07,398.88"/>
    </edge>
    <edge id=":69324223_5" function="internal">
        <lane id=":69324223_5_0" index="0" disallow="tram rail_urban rail rail_electric rail_fast ship" speed="3.65" length="4.67" shape="404.63,388.03 404.33,389.44 403.74,390.11 402.85,390.04 401.66,389.22"/>
    </edge>
    <edge id=":69324223_6" function="internal">
        <lane id=":69324223_6_0" index="0" disallow="tram rail_urban rail rail_electric rail_fast ship" speed="6.07" length="7.83" shape="399.94,395.89 401.47,394.93 402.27,393.50 402.33,391.60 401.66,389.22"/>
    </edge>
    <edge id=":69324223_7" function="internal">
        <lane id=":69324223_7_0" index="0" disallow="tram rail_urban rail rail_electric rail_fast ship" speed="27.78" length="12.77" shape="399.94,395.89 412.00,391.72"/>
    </edge>
    <edge id=":69324223_8" function="internal">
        <lane id=":69324223_8_0" index="0" disallow="tram rail_urban rail rail_electric rail_fast ship" speed="3.65" length="1.44" shape="399.94,395.89 401.34,396.21"/>
    </edge>
    <edge id=":69324223_11" function="internal">
        <lane id=":69324223_11_0" index="0" disallow="tram rail_urban rail rail_electric rail_fast ship" speed="3.65" length="3.23" shape="401.34,396.21 402.00,396.82 401.91,397.71 401.07,398.88"/>
    </edge>
    <edge id=":69452701_0" function="internal">
        <lane id=":69452701_0_0" index="0" disallow="tram rail_urban rail rail_electric rail_fast ship" speed="3.65" length="4.67" shape="776.64,566.73 775.74,567.86 774.91,568.18 774.14,567.71 773.46,566.45"/>
    </edge>
    <edge id=":69506222_0" function="internal">
        <lane id=":69506222_0_0" index="0" disallow="tram rail_urban rail rail_electric rail_fast ship" speed="6.88" length="9.34" shape="511.05,211.32 510.07,209.08 508.55,207.60 506.49,206.89 503.89,206.94"/>
    </edge>
    <edge id=":69506222_1" function="internal">
        <lane id=":69506222_1_0" index="0" disallow="tram rail_urban rail rail_electric rail_fast ship" speed="27.78" length="14.43" shape="511.05,211.32 507.34,197.37"/>
    </edge>
    <edge id=":69506222_2" function="internal">
        <lane id=":69506222_2_0" index="0" disallow="tram rail_urban rail rail_electric rail_fast ship" speed="3.65" length="1.44" shape="511.05,211.32 511.51,209.95"/>
    </edge>
    <edge id=":69506222_9" function="internal">
        <lane id=":69506222_9_0" index="0" disallow="tram rail_urban rail rail_electric rail_fast ship" speed="3.65" length="3.23" shape="511.51,209.95 512.18,209.36 513.05,209.53 514.14,210.48"/>
    </edge>
    <edge id=":69506222_3" function="internal">
        <lane id=":69506222_3_0" index="0" disallow="tram rail_urban rail rail_electric rail_fast ship" speed="27.78" length="14.41" shape="510.43,196.56 514.14,210.48"/>
    </edge>
    <edge id=":69506222_4" function="internal">
        <lane id=":69506222_4_0" index="0" disallow="tram rail_urban rail rail_electric rail_fast ship" speed="7.76" length="4.19" shape="510.43,196.56 510.92,200.60 510.88,200.71"/>
    </edge>
    <edge id=":69506222_5" function="internal">
        <lane id=":69506222_5_0" index="0" disallow="tram rail_urban rail rail_electric rail_fast ship" speed="3.65" length="1.44" shape="510.43,196.56 509.96,197.92"/>
    </edge>
    <edge id=":69506222_10" function="internal">
        <lane id=":69506222_10_0" index="0" disallow="tram rail_urban rail rail_electric rail_fast ship" speed="7.76" length="10.18" shape="510.88,200.71 509.99,203.67 507.64,205.79 503.89,206.94"/>
    </edge>
    <edge id=":69506222_11" function="internal">
        <lane id=":69506222_11_0" index="0" disallow="tram rail_urban rail rail_electric rail_fast ship" speed="3.65" length="3.23" shape="509.96,197.92 509.29,198.51 508.42,198.33 507.34,197.37"/>
    </edge>
    <edge id=":69506222_6" function="internal">
        <lane id=":69506222_6_0" index="0" disallow="tram rail_urban rail rail_electric rail_fast ship" speed="6.21" length="8.79" shape="503.41,203.78 505.68,203.07 507.09,201.77 507.64,199.87 507.34,197.37"/>
    </edge>
    <edge id=":69506222_7" function="internal">
        <lane id=":69506222_7_0" index="0" disallow="tram rail_urban rail rail_electric rail_fast ship" speed="8.32" length="14.09" shape="503.41,203.78 507.30,203.71 510.38,204.81 512.66,207.07 514.14,210.48"/>
    </edge>
    <edge id=":69506222_8" function="internal">
        <lane id=":69506222_8_0" index="0" disallow="tram rail_urban rail rail_electric rail_fast ship" speed="3.65" length="4.67" shape="503.41,203.78 504.72,204.39 505.23,205.12 504.95,205.97 503.89,206.94"/>
    </edge>
    <edge id=":69506241_0" function="internal">
        <lane id=":69506241_0_0" index="0" disallow="tram rail_urban rail rail_electric rail_fast ship" speed="27.78" length="0.30" shape="571.53,563.82 571.48,564.12"/>
    </edge>
    <edge id=":69506241_1" function="internal">
        <lane id=":69506241_1_0" index="0" disallow="tram rail_urban rail rail_electric rail_fast ship" speed="27.78" length="0.29" shape="568.31,563.68 568.35,563.39"/>
    </edge>
    <edge id=":69506251_0" function="internal">
        <lane id=":69506251_0_0" index="0" disallow="tram rail_urban rail rail_electric rail_fast ship" speed="3.65" length="4.67" shape="530.79,835.19 529.76,836.20 528.89,836.43 528.19,835.87 527.65,834.53"/>
    </edge>
    <edge id=":69580597_0" function="internal">