<?xml version="1.0" encoding="UTF-8"?>

<!-- generated on 2025-08-13 21:40:27 by Eclipse SUMO netconvert Version 1.18.0
<configuration xmlns:xsi="http://www.w3.org/2001/XMLSchema-instance" xsi:noNamespaceSchemaLocation="http://sumo.dlr.de/xsd/netconvertConfiguration.xsd">

    <input>
        <opendrive-files value="uga.xodr"/>
    </input>

    <output>
        <output-file value="tmp/map.net.xml"/>
        <plain-output-prefix value="tmp/"/>
    </output>

    <junctions>
        <no-turnarounds.except-deadend value="true"/>
    </junctions>

</configuration>
-->

<connections version="1.16" xmlns:xsi="http://www.w3.org/2001/XMLSchema-instance" xsi:noNamespaceSchemaLocation="http://sumo.dlr.de/xsd/connections_file.xsd">
    <connection from="-7200" to="-7340" fromLane="0" toLane="0"/>
    <connection from="-7200" to="-7339" fromLane="0" toLane="0"/>

    <connection from="-7201" to="-7342" fromLane="0" toLane="0"/>
    <connection from="-7201" to="-7341" fromLane="0" toLane="0"/>
    <connection from="-7201" to="-7341" fromLane="1" toLane="1"/>
    <connection from="-7201" to="-7343" fromLane="1" toLane="0"/>

    <connection from="-7202" to="-7203" fromLane="0" toLane="1"/>

    <connection from="-7203" to="-8433" fromLane="0" toLane="0">
        <param key="signalID" value="67284469_3"/>
    </connection>
    <connection from="-7203" to="-8433" fromLane="1" toLane="1">
        <param key="signalID" value="67284469_3"/>
    </connection>
    <connection from="-7203" to="-8434" fromLane="1" toLane="1">
        <param key="signalID" value="67284469_3"/>
    </connection>

    <connection from="-7204" to="-7207" fromLane="0" toLane="0"/>

    <connection from="-7205" to="-7565" fromLane="0" toLane="0"/>

    <connection from="-7206" to="-8275" fromLane="0" toLane="0"/>
    <connection from="-7206" to="-8274" fromLane="0" toLane="0"/>

    <connection from="-7207" to="-7206" fromLane="0" toLane="0"/>
    <connection from="-7207" to="-7205" fromLane="0" toLane="0"/>
    <connection from="-7207" to="-7204" fromLane="0" toLane="0"/>

    <connection from="-7208" to="-7354" fromLane="0" toLane="0"/>
    <connection from="-7208" to="-7355" fromLane="0" toLane="0"/>
    <connection from="-7208" to="-7353" fromLane="0" toLane="0"/>

    <connection from="-7209" to="-8163" fromLane="0" toLane="0"/>
    <connection from="-7209" to="-8162" fromLane="1" toLane="0"/>
    <connection from="-7209" to="-8162" fromLane="2" toLane="1"/>

    <connection from="-7210" to="-7213" fromLane="0" toLane="0"/>

    <connection from="-7211" to="-8230" fromLane="0" toLane="0"/>
    <connection from="-7211" to="-8231" fromLane="1" toLane="0"/>

    <connection from="-7212" to="-7265" fromLane="0" toLane="0"/>
    <connection from="-7212" to="-7266" fromLane="0" toLane="0"/>
    <connection from="-7212" to="-7266" fromLane="1" toLane="1"/>

    <connection from="-7213" to="-7212" fromLane="1" toLane="0"/>
    <connection from="-7213" to="-7212" fromLane="2" toLane="1"/>

    <connection from="-7214" to="-7477" fromLane="0" toLane="0"/>
    <connection from="-7214" to="-7476" fromLane="0" toLane="0"/>
    <connection from="-7214" to="-7475" fromLane="0" toLane="0"/>

    <connection from="-7215" to="-7996" fromLane="0" toLane="0"/>
    <connection from="-7215" to="-7995" fromLane="0" toLane="0"/>

    <connection from="-7216" to="-7998" fromLane="0" toLane="0"/>
    <connection from="-7216" to="-7997" fromLane="0" toLane="0"/>

    <connection from="-7217" to="-7220" fromLane="0" toLane="0"/>
    <connection from="-7217" to="-7221" fromLane="0" toLane="0"/>

    <connection from="-7218" to="-8380" fromLane="0" toLane="0">
        <param key="signalID" value="67271154_0 67271154_1 67271154_2 67271154_3"/>
    </connection>
    <connection from="-7218" to="-8382" fromLane="0" toLane="0">
        <param key="signalID" value="67271154_0 67271154_1 67271154_2 67271154_3"/>
    </connection>
    <connection from="-7218" to="-8381" fromLane="0" toLane="0">
        <param key="signalID" value="67271154_0 67271154_1 67271154_2 67271154_3"/>
    </connection>
    <connection from="-7218" to="-8379" fromLane="0" toLane="0">
        <param key="signalID" value="67271154_0 67271154_1 67271154_2 67271154_3"/>
    </connection>

    <connection from="-7219" to="-8481" fromLane="0" toLane="0">
        <param key="signalID" value="67307821_3 67307821_4 67307821_5"/>
    </connection>
    <connection from="-7219" to="-8482" fromLane="0" toLane="0">
        <param key="signalID" value="67307821_3 67307821_4 67307821_5"/>
    </connection>
    <connection from="-7219" to="-8480" fromLane="0" toLane="0">
        <param key="signalID" value="67307821_3 67307821_4 67307821_5"/>
    </connection>

    <connection from="-7220" to="-7281" fromLane="0" toLane="0"/>
    <connection from="-7220" to="-7281" fromLane="0" toLane="1"/>
    <connection from="-7220" to="-7282" fromLane="0" toLane="0"/>
    <connection from="-7220" to="-7280" fromLane="0" toLane="0"/>

    <connection from="-7221" to="-8382" fromLane="0" toLane="0">
        <param key="signalID" value="67271154_12 67271154_13 67271154_14 67271154_15"/>
    </connection>
    <connection from="-7221" to="-8381" fromLane="0" toLane="0">
        <param key="signalID" value="67271154_12 67271154_13 67271154_14 67271154_15"/>
    </connection>
    <connection from="-7221" to="-8379" fromLane="0" toLane="0">
        <param key="signalID" value="67271154_12 67271154_13 67271154_14 67271154_15"/>
    </connection>
    <connection from="-7221" to="-8380" fromLane="0" toLane="0">
        <param key="signalID" value="67271154_12 67271154_13 67271154_14 67271154_15"/>
    </connection>

    <connection from="-7222" to="-7224" fromLane="0" toLane="0"/>

    <connection from="-7223" to="-8384" fromLane="0" toLane="0">
        <param key="signalID" value="67272289_11 67272289_12"/>
    </connection>
    <connection from="-7223" to="-8383" fromLane="0" toLane="0">
        <param key="signalID" value="67272289_11 67272289_12"/>
    </connection>
    <connection from="-7223" to="-8385" fromLane="1" toLane="1">
        <param key="signalID" value="67272289_11 67272289_12"/>
    </connection>

    <connection from="-7224" to="-7228" fromLane="0" toLane="0"/>
    <connection from="-7224" to="-7227" fromLane="0" toLane="0"/>

    <connection from="-7225" to="-7222" fromLane="0" toLane="0"/>
    <connection from="-7225" to="-7223" fromLane="0" toLane="0"/>
    <connection from="-7225" to="-7223" fromLane="0" toLane="1"/>

    <connection from="-7226" to="-7228" fromLane="0" toLane="0"/>
    <connection from="-7226" to="-7227" fromLane="0" toLane="0"/>

    <connection from="-7227" to="-7224" fromLane="0" toLane="0"/>

    <connection from="-7228" to="-7230" fromLane="0" toLane="0"/>
    <connection from="-7228" to="-7230" fromLane="0" toLane="1"/>
    <connection from="-7228" to="-7229" fromLane="0" toLane="0"/>

    <connection from="-7229" to="-7227" fromLane="0" toLane="0"/>
    <connection from="-7229" to="-7228" fromLane="0" toLane="0"/>

    <connection from="-7230" to="-8396" fromLane="0" toLane="0">
        <param key="signalID" value="67273530_0 67273530_1"/>
    </connection>
    <connection from="-7230" to="-8397" fromLane="0" toLane="0">
        <param key="signalID" value="67273530_0 67273530_1"/>
    </connection>
    <connection from="-7230" to="-8397" fromLane="1" toLane="1">
        <param key="signalID" value="67273530_0 67273530_1"/>
    </connection>

    <connection from="-7231" to="-7369" fromLane="0" toLane="0"/>
    <connection from="-7231" to="-7368" fromLane="0" toLane="0"/>
    <connection from="-7231" to="-7367" fromLane="0" toLane="0"/>

    <connection from="-7232" to="-8371" fromLane="0" toLane="1">
        <param key="signalID" value="67270806_3 67270806_4"/>
    </connection>
    <connection from="-7232" to="-8370" fromLane="0" toLane="0">
        <param key="signalID" value="67270806_3 67270806_4"/>
    </connection>

    <connection from="-7233" to="-8523" fromLane="0" toLane="0"/>
    <connection from="-7233" to="-8522" fromLane="0" toLane="0"/>
    <connection from="-7233" to="-8521" fromLane="0" toLane="0"/>

    <connection from="-7234" to="-8252" fromLane="0" toLane="0">
        <param key="signalID" value="67248977_12 67248977_13 67248977_14 67248977_15"/>
    </connection>
    <connection from="-7234" to="-8251" fromLane="0" toLane="0">
        <param key="signalID" value="67248977_12 67248977_13 67248977_14 67248977_15"/>
    </connection>
    <connection from="-7234" to="-8250" fromLane="0" toLane="0">
        <param key="signalID" value="67248977_12 67248977_13 67248977_14 67248977_15"/>
    </connection>
    <connection from="-7234" to="-8249" fromLane="0" toLane="0">
        <param key="signalID" value="67248977_12 67248977_13 67248977_14 67248977_15"/>
    </connection>

    <connection from="-7235" to="-8521" fromLane="0" toLane="0"/>
    <connection from="-7235" to="-8523" fromLane="0" toLane="0"/>
    <connection from="-7235" to="-8522" fromLane="0" toLane="0"/>

    <connection from="-7236" to="-7249" fromLane="0" toLane="0"/>
    <connection from="-7236" to="-7250" fromLane="0" toLane="0"/>
    <connection from="-7236" to="-7248" fromLane="0" toLane="0"/>

    <connection from="-7237" to="-8265" fromLane="0" toLane="0">
        <param key="signalID" value="67249078_0 67249078_1 67249078_2"/>
    </connection>
    <connection from="-7237" to="-8264" fromLane="0" toLane="0">
        <param key="signalID" value="67249078_0 67249078_1 67249078_2"/>
    </connection>
    <connection from="-7237" to="-8263" fromLane="0" toLane="0">
        <param key="signalID" value="67249078_0 67249078_1 67249078_2"/>
    </connection>

    <connection from="-7238" to="-7583" fromLane="0" toLane="0" keepClear="0"/>
    <connection from="-7238" to="-7582" fromLane="0" toLane="0"/>

    <connection from="-7239" to="-7605" fromLane="0" toLane="0"/>
    <connection from="-7239" to="-7604" fromLane="0" toLane="0"/>
    <connection from="-7239" to="-7603" fromLane="0" toLane="0"/>

    <connection from="-7240" to="-7607" fromLane="0" toLane="0"/>

    <connection from="-7241" to="-8185" fromLane="0" toLane="0"/>
    <connection from="-7241" to="-8186" fromLane="0" toLane="0"/>
    <connection from="-7241" to="-8184" fromLane="0" toLane="0"/>

    <connection from="-7242" to="-8189" fromLane="0" toLane="0"/>
    <connection from="-7242" to="-8188" fromLane="0" toLane="0"/>
    <connection from="-7242" to="-8187" fromLane="0" toLane="0"/>

    <connection from="-7243" to="-8191" fromLane="0" toLane="0"/>
    <connection from="-7243" to="-8192" fromLane="0" toLane="0"/>
    <connection from="-7243" to="-8190" fromLane="0" toLane="0"/>

    <connection from="-7244" to="-7247" fromLane="0" toLane="0"/>
    <connection from="-7244" to="-7246" fromLane="0" toLane="0"/>
    <connection from="-7244" to="-7245" fromLane="0" toLane="0"/>

    <connection from="-7245" to="-7244" fromLane="0" toLane="0"/>

    <connection from="-7246" to="-8086" fromLane="0" toLane="0"/>
    <connection from="-7246" to="-8085" fromLane="0" toLane="0"/>
    <connection from="-7246" to="-8084" fromLane="0" toLane="0"/>

    <connection from="-7247" to="-8249" fromLane="0" toLane="0">
        <param key="signalID" value="67248977_0 67248977_1 67248977_2 67248977_3"/>
    </connection>
    <connection from="-7247" to="-8252" fromLane="0" toLane="0">
        <param key="signalID" value="67248977_0 67248977_1 67248977_2 67248977_3"/>
    </connection>
    <connection from="-7247" to="-8251" fromLane="0" toLane="0">
        <param key="signalID" value="67248977_0 67248977_1 67248977_2 67248977_3"/>
    </connection>
    <connection from="-7247" to="-8250" fromLane="0" toLane="0">
        <param key="signalID" value="67248977_0 67248977_1 67248977_2 67248977_3"/>
    </connection>

    <connection from="-7248" to="-7237" fromLane="0" toLane="0"/>
    <connection from="-7248" to="-7236" fromLane="0" toLane="0"/>

    <connection from="-7249" to="-7669" fromLane="0" toLane="0"/>
    <connection from="-7249" to="-7670" fromLane="0" toLane="0"/>
    <connection from="-7249" to="-7668" fromLane="0" toLane="0"/>
    <connection from="-7249" to="-7667" fromLane="0" toLane="0"/>

    <connection from="-7250" to="-8482" fromLane="0" toLane="0">
        <param key="signalID" value="67307821_0 67307821_1 67307821_2"/>
    </connection>
    <connection from="-7250" to="-8480" fromLane="0" toLane="0">
        <param key="signalID" value="67307821_0 67307821_1 67307821_2"/>
    </connection>
    <connection from="-7250" to="-8481" fromLane="0" toLane="0">
        <param key="signalID" value="67307821_0 67307821_1 67307821_2"/>
    </connection>

    <connection from="-7251" to="-7667" fromLane="0" toLane="0"/>
    <connection from="-7251" to="-7669" fromLane="0" toLane="0"/>
    <connection from="-7251" to="-7670" fromLane="0" toLane="0"/>
    <connection from="-7251" to="-7668" fromLane="0" toLane="0"/>

    <connection from="-7252" to="-7255" fromLane="0" toLane="0"/>

    <connection from="-7253" to="-7736" fromLane="0" toLane="0"/>
    <connection from="-7253" to="-7737" fromLane="0" toLane="0"/>
    <connection from="-7253" to="-7735" fromLane="0" toLane="0"/>

    <connection from="-7254" to="-7757" fromLane="0" toLane="0"/>

    <connection from="-7255" to="-7253" fromLane="0" toLane="0"/>
    <connection from="-7255" to="-7254" fromLane="0" toLane="0"/>
    <connection from="-7255" to="-7252" fromLane="0" toLane="0"/>

    <connection from="-7256" to="-7258" fromLane="0" toLane="1"/>
    <connection from="-7256" to="-7257" fromLane="0" toLane="0"/>

    <connection from="-7257" to="-7256" fromLane="0" toLane="0"/>

    <connection from="-7258" to="-8501" fromLane="0" toLane="0"/>
    <connection from="-7258" to="-8501" fromLane="1" toLane="1"/>

    <connection from="-7259" to="-8497" fromLane="0" toLane="0"/>
    <connection from="-7259" to="-8496" fromLane="0" toLane="0"/>
    <connection from="-7259" to="-8495" fromLane="0" toLane="0"/>

    <connection from="-7260" to="-7729" fromLane="0" toLane="0"/>

    <connection from="-7261" to="-7730" fromLane="0" toLane="0"/>

    <connection from="-7262" to="-7751" fromLane="0" toLane="0"/>
    <connection from="-7262" to="-7750" fromLane="0" toLane="0"/>
    <connection from="-7262" to="-7749" fromLane="0" toLane="0"/>

    <connection from="-7263" to="-8299" fromLane="0" toLane="0"/>
    <connection from="-7263" to="-8300" fromLane="0" toLane="0"/>
    <connection from="-7263" to="-8298" fromLane="1" toLane="1"/>

    <connection from="-7264" to="-8515" fromLane="0" toLane="0"/>
    <connection from="-7264" to="-8516" fromLane="0" toLane="0"/>
    <connection from="-7264" to="-8514" fromLane="1" toLane="1"/>

    <connection from="-7265" to="-7263" fromLane="0" toLane="0"/>
    <connection from="-7265" to="-7264" fromLane="0" toLane="1"/>

    <connection from="-7266" to="-8297" fromLane="0" toLane="0"/>
    <connection from="-7266" to="-8295" fromLane="0" toLane="0"/>
    <connection from="-7266" to="-8295" fromLane="1" toLane="1"/>
    <connection from="-7266" to="-8296" fromLane="1" toLane="0"/>

    <connection from="-7267" to="-8440" fromLane="0" toLane="0"/>
    <connection from="-7267" to="-8440" fromLane="1" toLane="1"/>
    <connection from="-7267" to="-8439" fromLane="1" toLane="0"/>

    <connection from="-7268" to="-7278" fromLane="0" toLane="0"/>
    <connection from="-7268" to="-7279" fromLane="0" toLane="0"/>
    <connection from="-7268" to="-7277" fromLane="0" toLane="0"/>

    <connection from="-7269" to="-7271" fromLane="0" toLane="0"/>
    <connection from="-7269" to="-7272" fromLane="0" toLane="0"/>
    <connection from="-7269" to="-7270" fromLane="0" toLane="0"/>

    <connection from="-7270" to="-7269" fromLane="0" toLane="0"/>

    <connection from="-7271" to="-7273" fromLane="0" toLane="0"/>

    <connection from="-7272" to="-7279" fromLane="0" toLane="0"/>
    <connection from="-7272" to="-7277" fromLane="0" toLane="0"/>
    <connection from="-7272" to="-7278" fromLane="0" toLane="0"/>

    <connection from="-7273" to="-7272" fromLane="0" toLane="0"/>
    <connection from="-7273" to="-7270" fromLane="0" toLane="0"/>
    <connection from="-7273" to="-7271" fromLane="0" toLane="0"/>

    <connection from="-7274" to="-7277" fromLane="0" toLane="0"/>
    <connection from="-7274" to="-7278" fromLane="0" toLane="0"/>
    <connection from="-7274" to="-7279" fromLane="0" toLane="0"/>

    <connection from="-7275" to="-7871" fromLane="0" toLane="0"/>
    <connection from="-7275" to="-7873" fromLane="0" toLane="0"/>
    <connection from="-7275" to="-7872" fromLane="0" toLane="0"/>
    <connection from="-7275" to="-7870" fromLane="0" toLane="0"/>

    <connection from="-7276" to="-7901" fromLane="0" toLane="0"/>
    <connection from="-7276" to="-7902" fromLane="0" toLane="0"/>
    <connection from="-7276" to="-7900" fromLane="0" toLane="0"/>

    <connection from="-7277" to="-7268" fromLane="0" toLane="0"/>

    <connection from="-7278" to="-7270" fromLane="0" toLane="0"/>
    <connection from="-7278" to="-7271" fromLane="0" toLane="0"/>
    <connection from="-7278" to="-7272" fromLane="0" toLane="0"/>

    <connection from="-7279" to="-7275" fromLane="0" toLane="0"/>
    <connection from="-7279" to="-7276" fromLane="0" toLane="0"/>
    <connection from="-7279" to="-7274" fromLane="0" toLane="0"/>

    <connection from="-7280" to="-7221" fromLane="0" toLane="0"/>
    <connection from="-7280" to="-7220" fromLane="0" toLane="0"/>

    <connection from="-7281" to="-7420" fromLane="0" toLane="0"/>
    <connection from="-7281" to="-7419" fromLane="1" toLane="1"/>

    <connection from="-7282" to="-8484" fromLane="0" toLane="0"/>
    <connection from="-7282" to="-8483" fromLane="0" toLane="0"/>

    <connection from="-7283" to="-7203" fromLane="0" toLane="0"/>
    <connection from="-7283" to="-7203" fromLane="1" toLane="1"/>

    <connection from="-7284" to="-7285" fromLane="0" toLane="0"/>

    <connection from="-7285" to="-7283" fromLane="0" toLane="0"/>
    <connection from="-7285" to="-7284" fromLane="0" toLane="0"/>

    <connection from="-7286" to="-7291" fromLane="0" toLane="0"/>
    <connection from="-7286" to="-7290" fromLane="0" toLane="0"/>
    <connection from="-7286" to="-7289" fromLane="0" toLane="0"/>

    <connection from="-7287" to="-7567" fromLane="0" toLane="0"/>

    <connection from="-7288" to="-7896" fromLane="0" toLane="0"/>
    <connection from="-7288" to="-7897" fromLane="0" toLane="0"/>
    <connection from="-7288" to="-7895" fromLane="0" toLane="0"/>

    <connection from="-7289" to="-7288" fromLane="0" toLane="0"/>
    <connection from="-7289" to="-7287" fromLane="0" toLane="0"/>
    <connection from="-7289" to="-7286" fromLane="0" toLane="0"/>

    <connection from="-7290" to="-7570" fromLane="0" toLane="0"/>
    <connection from="-7290" to="-7569" fromLane="0" toLane="0"/>
    <connection from="-7290" to="-7568" fromLane="0" toLane="0"/>

    <connection from="-7291" to="-7905" fromLane="0" toLane="0"/>
    <connection from="-7291" to="-7906" fromLane="0" toLane="0"/>
    <connection from="-7291" to="-7904" fromLane="0" toLane="0"/>

    <connection from="-7292" to="-7297" fromLane="0" toLane="0"/>
    <connection from="-7292" to="-7298" fromLane="1" toLane="1"/>

    <connection from="-7293" to="-8164" fromLane="0" toLane="0"/>
    <connection from="-7293" to="-8164" fromLane="1" toLane="1"/>

    <connection from="-7294" to="-8508" fromLane="0" toLane="0"/>
    <connection from="-7294" to="-8507" fromLane="0" toLane="0"/>
    <connection from="-7294" to="-8507" fromLane="1" toLane="1"/>

    <connection from="-7295" to="-7300" fromLane="0" toLane="0"/>
    <connection from="-7295" to="-7299" fromLane="0" toLane="0"/>
    <connection from="-7295" to="-7299" fromLane="1" toLane="1"/>

    <connection from="-7296" to="-8297" fromLane="0" toLane="0"/>
    <connection from="-7296" to="-8295" fromLane="0" toLane="1"/>
    <connection from="-7296" to="-8296" fromLane="0" toLane="0"/>

    <connection from="-7297" to="-8161" fromLane="0" toLane="1"/>

    <connection from="-7298" to="-8173" fromLane="0" toLane="0"/>
    <connection from="-7298" to="-8173" fromLane="1" toLane="1"/>
    <connection from="-7298" to="-8174" fromLane="1" toLane="1"/>

    <connection from="-7299" to="-7301" fromLane="0" toLane="0"/>
    <connection from="-7299" to="-7301" fromLane="1" toLane="1"/>
    <connection from="-7299" to="-7302" fromLane="1" toLane="0"/>

    <connection from="-7300" to="-7461" fromLane="0" toLane="0"/>

    <connection from="-7301" to="-7209" fromLane="0" toLane="1"/>
    <connection from="-7301" to="-7209" fromLane="1" toLane="2"/>

    <connection from="-7302" to="-8233" fromLane="0" toLane="1"/>
    <connection from="-7302" to="-8232" fromLane="0" toLane="1"/>

    <connection from="-7303" to="-8615" fromLane="0" toLane="0"/>
    <connection from="-7303" to="-8614" fromLane="0" toLane="0"/>
    <connection from="-7303" to="-8613" fromLane="0" toLane="0"/>

    <connection from="-7304" to="-7307" fromLane="0" toLane="0"/>
    <connection from="-7304" to="-7308" fromLane="0" toLane="0"/>
    <connection from="-7304" to="-7306" fromLane="0" toLane="0"/>

    <connection from="-7305" to="-7308" fromLane="0" toLane="0"/>
    <connection from="-7305" to="-7306" fromLane="0" toLane="0"/>
    <connection from="-7305" to="-7307" fromLane="0" toLane="0"/>

    <connection from="-7306" to="-7304" fromLane="0" toLane="0"/>

    <connection from="-7307" to="-7305" fromLane="0" toLane="0"/>

    <connection from="-7308" to="-8612" fromLane="0" toLane="0"/>
    <connection from="-7308" to="-8611" fromLane="0" toLane="0"/>
    <connection from="-7308" to="-8610" fromLane="0" toLane="0"/>

    <connection from="-7309" to="-8504" fromLane="0" toLane="0"/>
    <connection from="-7309" to="-8505" fromLane="0" toLane="0"/>
    <connection from="-7309" to="-8503" fromLane="0" toLane="0"/>

    <connection from="-7310" to="-7947" fromLane="0" toLane="0"/>

    <connection from="-7311" to="-8228" fromLane="0" toLane="0"/>
    <connection from="-7311" to="-8228" fromLane="1" toLane="1"/>
    <connection from="-7311" to="-8229" fromLane="2" toLane="0"/>
    <connection from="-7311" to="-8229" fromLane="3" toLane="1"/>

    <connection from="-7312" to="-7313" fromLane="0" toLane="0"/>
    <connection from="-7312" to="-7313" fromLane="0" toLane="1"/>
    <connection from="-7312" to="-7313" fromLane="1" toLane="2"/>

    <connection from="-7313" to="-7457" fromLane="0" toLane="0"/>
    <connection from="-7313" to="-7459" fromLane="1" toLane="0"/>
    <connection from="-7313" to="-7459" fromLane="2" toLane="1"/>

    <connection from="-7314" to="-7316" fromLane="0" toLane="0"/>
    <connection from="-7314" to="-7315" fromLane="0" toLane="0"/>

    <connection from="-7315" to="-7314" fromLane="0" toLane="0"/>

    <connection from="-7316" to="-7322" fromLane="0" toLane="0"/>
    <connection from="-7316" to="-7321" fromLane="0" toLane="0"/>
    <connection from="-7316" to="-7320" fromLane="0" toLane="0"/>

    <connection from="-7317" to="-7320" fromLane="0" toLane="0"/>
    <connection from="-7317" to="-7322" fromLane="0" toLane="0"/>
    <connection from="-7317" to="-7321" fromLane="0" toLane="0"/>

    <connection from="-7318" to="-8102" fromLane="0" toLane="0"/>
    <connection from="-7318" to="-8103" fromLane="0" toLane="0"/>
    <connection from="-7318" to="-8101" fromLane="0" toLane="0"/>

    <connection from="-7319" to="-8104" fromLane="0" toLane="0"/>

    <connection from="-7320" to="-7315" fromLane="0" toLane="0"/>
    <connection from="-7320" to="-7316" fromLane="0" toLane="0"/>

    <connection from="-7321" to="-7319" fromLane="0" toLane="0"/>
    <connection from="-7321" to="-7318" fromLane="0" toLane="0"/>
    <connection from="-7321" to="-7317" fromLane="0" toLane="0"/>

    <connection from="-7322" to="-8294" fromLane="0" toLane="0"/>

    <connection from="-7323" to="-7360" fromLane="0" toLane="0"/>
    <connection from="-7323" to="-7361" fromLane="0" toLane="0"/>
    <connection from="-7323" to="-7359" fromLane="0" toLane="0"/>

    <connection from="-7324" to="-7587" fromLane="0" toLane="0"/>
    <connection from="-7324" to="-7586" fromLane="0" toLane="0"/>
    <connection from="-7324" to="-7585" fromLane="0" toLane="0"/>

    <connection from="-7325" to="-7327" fromLane="0" toLane="0"/>
    <connection from="-7325" to="-7328" fromLane="0" toLane="0"/>
    <connection from="-7325" to="-7326" fromLane="0" toLane="0"/>

    <connection from="-7326" to="-7325" fromLane="0" toLane="0"/>

    <connection from="-7327" to="-7331" fromLane="0" toLane="0"/>
    <connection from="-7327" to="-7332" fromLane="0" toLane="0"/>
    <connection from="-7327" to="-7330" fromLane="0" toLane="0"/>

    <connection from="-7328" to="-8343" fromLane="0" toLane="0">
        <param key="signalID" value="67267920_10 67267920_11 67267920_8 67267920_9"/>
    </connection>
    <connection from="-7328" to="-8344" fromLane="0" toLane="0">
        <param key="signalID" value="67267920_10 67267920_11 67267920_8 67267920_9"/>
    </connection>
    <connection from="-7328" to="-8345" fromLane="0" toLane="0">
        <param key="signalID" value="67267920_10 67267920_11 67267920_8 67267920_9"/>
    </connection>
    <connection from="-7328" to="-8342" fromLane="0" toLane="0">
        <param key="signalID" value="67267920_10 67267920_11 67267920_8 67267920_9"/>
    </connection>

    <connection from="-7329" to="-7332" fromLane="0" toLane="0"/>
    <connection from="-7329" to="-7330" fromLane="0" toLane="0"/>
    <connection from="-7329" to="-7331" fromLane="0" toLane="0"/>

    <connection from="-7330" to="-7328" fromLane="0" toLane="0"/>
    <connection from="-7330" to="-7326" fromLane="0" toLane="0"/>
    <connection from="-7330" to="-7327" fromLane="0" toLane="0"/>

    <connection from="-7331" to="-7329" fromLane="0" toLane="0"/>

    <connection from="-7332" to="-8432" fromLane="0" toLane="0"/>
    <connection from="-7332" to="-8431" fromLane="0" toLane="0"/>
    <connection from="-7332" to="-8430" fromLane="0" toLane="0"/>

    <connection from="-7333" to="-8430" fromLane="0" toLane="0"/>
    <connection from="-7333" to="-8432" fromLane="0" toLane="0"/>
    <connection from="-7333" to="-8431" fromLane="0" toLane="0"/>

    <connection from="-7334" to="-7337" fromLane="0" toLane="0"/>

    <connection from="-7335" to="-8350" fromLane="0" toLane="0"/>
    <connection from="-7335" to="-8351" fromLane="0" toLane="0"/>
    <connection from="-7335" to="-8349" fromLane="0" toLane="0"/>

    <connection from="-7336" to="-7335" fromLane="0" toLane="0"/>

    <connection from="-7337" to="-7384" fromLane="0" toLane="0"/>
    <connection from="-7337" to="-7385" fromLane="0" toLane="0"/>
    <connection from="-7337" to="-7383" fromLane="0" toLane="0"/>

    <connection from="-7338" to="-8578" fromLane="0" toLane="0"/>
    <connection from="-7338" to="-8577" fromLane="0" toLane="0"/>
    <connection from="-7338" to="-8576" fromLane="0" toLane="0"/>

    <connection from="-7339" to="-7341" fromLane="0" toLane="0"/>
    <connection from="-7339" to="-7343" fromLane="0" toLane="0"/>
    <connection from="-7339" to="-7342" fromLane="0" toLane="0"/>

    <connection from="-7340" to="-8576" fromLane="0" toLane="0"/>
    <connection from="-7340" to="-8578" fromLane="0" toLane="0"/>
    <connection from="-7340" to="-8577" fromLane="0" toLane="0"/>

    <connection from="-7341" to="-7295" fromLane="0" toLane="0"/>
    <connection from="-7341" to="-7295" fromLane="1" toLane="1"/>
    <connection from="-7341" to="-7296" fromLane="1" toLane="0"/>

    <connection from="-7342" to="-7340" fromLane="0" toLane="0"/>
    <connection from="-7342" to="-7339" fromLane="0" toLane="0"/>

    <connection from="-7343" to="-8440" fromLane="0" toLane="1"/>
    <connection from="-7343" to="-8439" fromLane="0" toLane="0"/>

    <connection from="-7344" to="-7828" fromLane="0" toLane="0"/>
    <connection from="-7344" to="-7828" fromLane="0" toLane="1"/>
    <connection from="-7344" to="-7827" fromLane="0" toLane="0"/>
    <connection from="-7344" to="-7826" fromLane="0" toLane="0"/>

    <connection from="-7345" to="-8169" fromLane="0" toLane="0"/>
    <connection from="-7345" to="-8170" fromLane="1" toLane="0"/>
    <connection from="-7345" to="-8170" fromLane="2" toLane="1"/>
    <connection from="-7345" to="-8170" fromLane="3" toLane="2"/>

    <connection from="-7346" to="-8436" fromLane="0" toLane="0"/>
    <connection from="-7346" to="-8437" fromLane="0" toLane="0"/>
    <connection from="-7346" to="-8438" fromLane="0" toLane="0"/>
    <connection from="-7346" to="-8435" fromLane="0" toLane="0"/>

    <connection from="-7347" to="-8630" fromLane="0" toLane="0"/>
    <connection from="-7347" to="-8630" fromLane="1" toLane="1"/>
    <connection from="-7347" to="-8631" fromLane="1" toLane="0"/>
    <connection from="-7347" to="-8629" fromLane="1" toLane="1"/>

    <connection from="-7348" to="-8247" fromLane="0" toLane="0"/>
    <connection from="-7348" to="-8248" fromLane="0" toLane="0"/>
    <connection from="-7348" to="-8246" fromLane="0" toLane="0"/>

    <connection from="-7349" to="-8628" fromLane="0" toLane="0"/>
    <connection from="-7349" to="-8627" fromLane="0" toLane="0"/>

    <connection from="-7350" to="-7355" fromLane="0" toLane="0"/>
    <connection from="-7350" to="-7353" fromLane="0" toLane="0"/>
    <connection from="-7350" to="-7354" fromLane="0" toLane="0"/>

    <connection from="-7351" to="-8320" fromLane="0" toLane="0"/>

    <connection from="-7352" to="-8326" fromLane="0" toLane="0"/>
    <connection from="-7352" to="-8325" fromLane="0" toLane="0"/>
    <connection from="-7352" to="-8324" fromLane="0" toLane="0"/>

    <connection from="-7353" to="-7208" fromLane="0" toLane="0"/>
