<?xml version="1.0" encoding="UTF-8"?>

<!-- generated on 2025-08-13 21:40:27 by Eclipse SUMO netconvert Version 1.18.0
<configuration xmlns:xsi="http://www.w3.org/2001/XMLSchema-instance" xsi:noNamespaceSchemaLocation="http://sumo.dlr.de/xsd/netconvertConfiguration.xsd">

    <input>
        <opendrive-files value="uga.xodr"/>
    </input>

    <output>
        <output-file value="tmp/map.net.xml"/>
        <plain-output-prefix value="tmp/"/>
    </output>

    <junctions>
        <no-turnarounds.except-deadend value="true"/>
    </junctions>

</configuration>
-->

<edges version="1.16" xmlns:xsi="http://www.w3.org/2001/XMLSchema-instance" xsi:noNamespaceSchemaLocation="http://sumo.dlr.de/xsd/edges_file.xsd">
    <location netOffset="-279962.57,-3756336.62" convBoundary="0.00,0.00,2338.29,3900.30" origBoundary="0.000000,0.000000,0.000000,0.000000" projParameter="+proj=utm +zone=17 +ellps=WGS84 +datum=WGS84 +units=m +no_defs

        "/>

    <edge id="-7200" from="1" to="2" priority="1" type="driving" numLanes="1" shape="1726.75,874.84 1721.80,875.55 1720.76,875.65 1719.73,875.74 1718.40,875.95 1717.07,876.20 1715.73,876.58 1714.40,877.02 1713.24,877.53 1712.10,878.08 1711.30,878.56 1710.38,879.10 1709.47,879.67 1708.39,880.53 1707.36,881.45 1702.05,886.62" disallow="pedestrian tram rail_urban rail rail_electric rail_fast ship">
        <lane index="0" speed="15.74" type="driving"/>
    </edge>
    <edge id="-7201" from="1" to="3" priority="1" type="driving" numLanes="2" shape="1729.29,866.86 1717.56,862.31 1715.90,861.66 1714.24,861.02 1710.21,859.46" disallow="pedestrian tram rail_urban rail rail_electric rail_fast ship">
        <lane index="0" speed="17.99" type="driving"/>
        <lane index="1" speed="17.99" type="driving"/>
    </edge>
    <edge id="-7202" from="7202.begin" to="4" priority="1" type="driving" numLanes="1" shape="313.54,3728.23 313.59,3728.04 313.94,3726.59 314.36,3724.85 314.79,3723.10 315.14,3721.65 315.19,3721.46" disallow="pedestrian tram rail_urban rail rail_electric rail_fast ship">
        <lane index="0" speed="9.10" type="driving"/>
    </edge>
    <edge id="-7203" from="4" to="5" priority="1" type="driving" numLanes="2" shape="320.00,3718.55 360.38,3728.78 361.79,3729.12 363.44,3729.49 364.85,3729.80 366.28,3730.12 367.95,3730.50 369.79,3730.91 371.70,3731.33 373.61,3731.76 375.45,3732.18 377.12,3732.56 378.55,3732.90 379.34,3733.09" disallow="pedestrian tram rail_urban rail rail_electric rail_fast ship">
        <lane index="0" speed="16.15" type="driving"/>
        <lane index="1" speed="16.15" type="driving"/>
    </edge>
    <edge id="-7204" from="6" to="7" priority="1" type="driving" numLanes="1" shape="523.27,3580.59 523.46,3580.66 524.81,3581.08 526.40,3581.56 527.75,3581.96 527.94,3582.01" disallow="pedestrian tram rail_urban rail rail_electric rail_fast ship">
        <lane index="0" speed="9.10" type="driving"/>
    </edge>
    <edge id="-7205" from="6" to="8" priority="1" type="driving" numLanes="1" shape="518.02,3571.54 519.73,3564.98 519.97,3564.07 520.29,3562.76 520.67,3561.23 521.00,3559.92 521.39,3558.51 521.86,3556.81 522.37,3555.01 522.85,3553.31 523.24,3551.89 523.67,3550.35 524.19,3548.49 524.74,3546.53 525.25,3544.67 525.68,3543.13 526.07,3541.74 526.52,3540.12 526.90,3538.73 527.34,3537.17 527.87,3535.29 528.40,3533.41 528.82,3531.85 533.87,3512.46 534.56,3511.12 535.45,3509.87 536.21,3509.04 537.07,3508.33 538.22,3507.89 539.41,3507.56 540.68,3507.27 541.95,3507.01 543.89,3506.70 545.34,3506.57 546.79,3506.48 548.14,3506.44" disallow="pedestrian tram rail_urban rail rail_electric rail_fast ship">
        <lane index="0" speed="9.10" type="driving"/>
    </edge>
    <edge id="-7206" from="6" to="9" priority="1" type="driving" numLanes="1" shape="514.38,3585.48 513.04,3590.58 512.64,3592.13 512.15,3594.00 511.63,3595.97 511.14,3597.83 510.73,3599.38 500.08,3639.72 499.64,3641.39 499.12,3643.35 498.67,3645.02 498.62,3645.21" disallow="pedestrian tram rail_urban rail rail_electric rail_fast ship">
        <lane index="0" speed="9.10" type="driving"/>
    </edge>
    <edge id="-7207" from="7" to="6" priority="1" type="driving" numLanes="1" shape="527.94,3582.01 527.75,3581.96 526.40,3581.56 524.81,3581.08 523.46,3580.66 523.27,3580.59" disallow="pedestrian tram rail_urban rail rail_electric rail_fast ship">
        <lane index="0" speed="9.10" type="driving"/>
    </edge>
    <edge id="-7208" from="10" to="11" priority="1" type="driving" numLanes="1" shape="380.93,1600.44 400.58,1599.40" disallow="pedestrian tram rail_urban rail rail_electric rail_fast ship">
        <lane index="0" speed="9.10" type="driving"/>
    </edge>
    <edge id="-7209" from="12" to="13" priority="1" type="driving" numLanes="3" shape="1077.18,1056.10 1049.02,1068.48 1047.56,1069.12 1045.86,1069.86 1044.00,1070.68 1042.04,1071.54 1040.05,1072.41 1038.09,1073.27 1036.23,1074.09 1034.54,1074.83 1033.07,1075.48 983.01,1097.77" disallow="pedestrian tram rail_urban rail rail_electric rail_fast ship">
        <lane index="0" speed="17.99" type="driving"/>
        <lane index="1" speed="17.99" type="driving"/>
        <lane index="2" speed="17.99" type="driving"/>
    </edge>
    <edge id="-7210" from="14" to="15" priority="1" type="driving" numLanes="1" shape="1324.17,829.37 1334.07,845.77 1335.11,847.00 1336.62,848.19 1338.43,849.32 1340.40,850.39 1342.35,851.39 1344.13,852.31 1345.58,853.15 1346.70,853.86 1347.82,854.58 1349.12,855.46 1350.67,856.54 1352.25,857.57 1353.63,858.29 1356.36,859.25 1358.14,859.51 1358.98,859.09 1360.51,855.81" disallow="pedestrian tram rail_urban rail rail_electric rail_fast ship">
        <lane index="0" speed="31.51" type="driving"/>
    </edge>
    <edge id="-7211" from="14" to="16" priority="1" type="driving" numLanes="2" shape="1317.30,833.52 1327.21,851.42 1328.04,852.77 1329.11,854.33 1330.31,855.98 1331.53,857.63 1332.67,859.14 1333.60,860.43 1334.47,861.64 1335.33,862.85 1338.21,866.90" disallow="pedestrian tram rail_urban rail rail_electric rail_fast ship">
        <lane index="0" speed="31.51" type="driving"/>
        <lane index="1" speed="31.51" type="driving"/>
    </edge>
    <edge id="-7212" from="17" to="18" priority="1" type="driving" numLanes="2" shape="1451.35,805.48 1451.53,805.40 1453.08,804.77 1454.96,804.09 1457.00,803.38 1459.06,802.71 1460.96,802.11 1462.56,801.62 1462.76,801.57" disallow="pedestrian tram rail_urban rail rail_electric rail_fast ship">
        <lane index="0" speed="17.99" type="driving"/>
        <lane index="1" speed="17.99" type="driving"/>
    </edge>
    <edge id="-7213" from="15" to="17" priority="1" type="driving" numLanes="3" shape="1364.34,860.53 1368.50,857.41 1369.61,856.57 1370.96,855.55 1372.31,854.55 1373.43,853.72 1374.69,852.84 1376.15,851.81 1377.76,850.68 1379.44,849.51 1381.12,848.34 1382.73,847.22 1384.20,846.19 1385.46,845.32 1404.09,832.30 1405.45,831.37 1407.04,830.30 1408.78,829.14 1410.63,827.92 1412.51,826.69 1414.36,825.49 1416.12,824.35 1417.72,823.31 1419.11,822.41 1420.50,821.52 1422.17,820.45 1423.95,819.34 1425.65,818.30 1427.07,817.47 1428.52,816.67 1430.19,815.75 1432.02,814.74 1433.96,813.69 1435.94,812.63 1437.89,811.61 1439.75,810.66 1441.47,809.82 1442.96,809.14 1444.01,808.68" disallow="pedestrian tram rail_urban rail rail_electric rail_fast ship">
        <lane index="0" speed="17.99" type="driving"/>
        <lane index="1" speed="17.99" type="driving"/>
        <lane index="2" speed="17.99" type="driving"/>
    </edge>
    <edge id="-7214" from="19" to="20" priority="1" type="driving" numLanes="1" shape="852.11,1192.98 852.03,1193.20 851.65,1194.36 851.01,1195.97 850.29,1197.54 849.26,1199.11 848.13,1200.61 846.91,1202.08 845.58,1203.45 844.49,1204.33 843.13,1205.35 841.72,1206.30 840.50,1206.98 839.11,1207.55 837.37,1208.13 835.60,1208.56 834.12,1208.69 821.48,1208.03 819.97,1208.01 818.13,1208.06 816.30,1208.13 814.78,1208.18 813.53,1208.19 812.27,1208.24 810.68,1208.42 808.77,1208.64 806.75,1208.90 804.84,1209.18 803.27,1209.48 801.68,1210.03 799.85,1210.83 798.30,1211.51 796.99,1212.04 795.44,1212.67 794.13,1213.21 793.95,1213.28" disallow="pedestrian tram rail_urban rail rail_electric rail_fast ship">
        <lane index="0" speed="9.10" type="driving"/>
    </edge>
    <edge id="-7215" from="19" to="21" priority="1" type="driving" numLanes="1" shape="860.71,1187.02 868.31,1188.01 870.10,1188.14 872.20,1188.19 873.99,1188.24 875.73,1188.33 877.46,1188.45 878.84,1188.62 880.45,1188.84 881.81,1189.06 883.37,1189.38 885.20,1189.80 886.74,1190.20 888.40,1190.74 890.33,1191.43 891.94,1192.07 893.61,1192.88 895.53,1193.89 897.13,1194.80 898.67,1195.76 900.45,1196.95 901.91,1198.02 903.33,1199.27 904.92,1200.81 906.23,1202.16 907.45,1203.55 908.81,1205.23 909.86,1206.73 910.55,1208.18 911.21,1209.94 911.66,1211.48 915.45,1227.97 915.81,1229.53 916.22,1231.41 916.66,1233.40 917.07,1235.29 917.41,1236.86 917.79,1238.65 918.24,1240.77 918.60,1242.57 918.89,1244.14 919.23,1246.04 919.58,1248.05 919.90,1249.95 920.13,1251.53 926.50,1299.75 926.74,1301.33 927.07,1303.23 927.43,1305.23 927.79,1307.13 928.09,1308.70 928.47,1310.43 928.87,1312.16 929.21,1313.65 929.61,1315.45 930.02,1317.25 930.36,1318.74 930.40,1318.94" disallow="pedestrian tram rail_urban rail rail_electric rail_fast ship">
        <lane index="0" speed="9.10" type="driving"/>
    </edge>
    <edge id="-7216" from="19" to="22" priority="1" type="driving" numLanes="1" shape="851.96,1179.91 850.74,1176.07" disallow="pedestrian tram rail_urban rail rail_electric rail_fast ship">
        <lane index="0" speed="9.10" type="driving"/>
    </edge>
    <edge id="-7217" from="23" to="24" priority="1" type="driving" numLanes="1" shape="842.53,1819.33 840.97,1818.44 839.73,1817.80 838.21,1817.09 836.67,1816.41 835.38,1815.87 834.30,1815.53 833.19,1815.23 831.60,1814.73 829.73,1814.15 828.11,1813.80 821.87,1813.20" disallow="pedestrian tram rail_urban rail rail_electric rail_fast ship">
        <lane index="0" speed="15.74" type="driving"/>
    </edge>
    <edge id="-7218" from="23" to="25" priority="1" type="driving" numLanes="1" shape="845.77,1817.11 844.95,1815.79 844.12,1814.41 843.14,1812.74 842.16,1811.07 841.34,1809.68 840.77,1808.71" disallow="pedestrian tram rail_urban rail rail_electric rail_fast ship">
        <lane index="0" speed="17.99" type="driving"/>
    </edge>
    <edge id="-7219" from="23" to="26" priority="1" type="driving" numLanes="1" shape="850.85,1825.34 868.18,1853.40 868.99,1854.69 869.96,1856.21 871.02,1857.86 872.05,1859.52 872.99,1861.07 873.73,1862.39 884.05,1881.86 884.79,1883.24 885.67,1884.87 886.63,1886.64 887.61,1888.47 888.55,1890.25 889.40,1891.89 890.10,1893.29 890.80,1894.75 891.58,1896.47 892.43,1898.35 893.31,1900.33 894.19,1902.30 895.02,1904.19 895.79,1905.92 896.44,1907.40 897.13,1908.93 897.95,1910.75 898.84,1912.73 899.73,1914.70 900.55,1916.53 901.24,1918.06 901.33,1918.24" disallow="pedestrian tram rail_urban rail rail_electric rail_fast ship">
        <lane index="0" speed="17.99" type="driving"/>
    </edge>
    <edge id="-7220" from="24" to="27" priority="1" type="driving" numLanes="1" shape="808.91,1814.33 807.22,1815.07" disallow="pedestrian tram rail_urban rail rail_electric rail_fast ship">
        <lane index="0" speed="15.74" type="driving"/>
    </edge>
    <edge id="-7221" from="24" to="25" priority="1" type="driving" numLanes="1" shape="819.93,1809.47 820.86,1809.06 822.39,1808.38 824.24,1807.57 826.19,1806.71 828.03,1805.90 829.56,1805.22 829.75,1805.14" disallow="pedestrian tram rail_urban rail rail_electric rail_fast ship">
        <lane index="0" speed="15.74" type="driving"/>
    </edge>
    <edge id="-7222" from="28" to="29" priority="1" type="driving" numLanes="1" shape="251.61,3654.24 233.03,3649.94" disallow="pedestrian tram rail_urban rail rail_electric rail_fast ship">
        <lane index="0" speed="9.10" type="driving"/>
    </edge>
    <edge id="-7223" from="28" to="30" priority="1" type="driving" numLanes="2" shape="262.66,3652.74 266.55,3636.51 266.92,3634.95 267.29,3633.40 267.66,3631.94 268.09,3630.18 268.56,3628.29 269.03,3626.40 269.47,3624.65 269.84,3623.18 270.21,3621.69 270.66,3619.89 271.14,3618.00 271.60,3616.21 272.01,3614.72 272.07,3614.53" disallow="pedestrian tram rail_urban rail rail_electric rail_fast ship">
        <lane index="0" speed="14.45" type="driving"/>
        <lane index="1" speed="14.45" type="driving"/>
    </edge>
    <edge id="-7224" from="29" to="31" priority="1" type="driving" numLanes="1" shape="224.80,3655.79 224.25,3660.84 224.10,3662.25 223.95,3663.96 223.83,3665.66 223.81,3667.08 223.82,3667.28" disallow="pedestrian tram rail_urban rail rail_electric rail_fast ship">
        <lane index="0" speed="9.10" type="driving"/>
    </edge>
    <edge id="-7225" from="32" to="28" priority="1" type="driving" numLanes="1" shape="256.02,3673.70 258.51,3663.25" disallow="pedestrian tram rail_urban rail rail_electric rail_fast ship">
        <lane index="0" speed="14.45" type="driving"/>
    </edge>
    <edge id="-7226" from="32" to="31" priority="1" type="driving" numLanes="1" shape="248.06,3675.94 247.86,3675.89 246.10,3675.48 244.03,3675.01 242.27,3674.60 231.27,3672.05" disallow="pedestrian tram rail_urban rail rail_electric rail_fast ship">
        <lane index="0" speed="9.10" type="driving"/>
    </edge>
    <edge id="-7227" from="31" to="29" priority="1" type="driving" numLanes="1" shape="223.82,3667.28 223.81,3667.08 223.83,3665.66 223.95,3663.96 224.10,3662.25 224.25,3660.84 224.80,3655.79" disallow="pedestrian tram rail_urban rail rail_electric rail_fast ship">
        <lane index="0" speed="9.10" type="driving"/>
    </edge>
    <edge id="-7228" from="31" to="33" priority="1" type="driving" numLanes="1" shape="222.66,3677.33 222.61,3677.53 222.29,3678.85 221.90,3680.46 221.52,3682.06 221.20,3683.39 221.16,3683.59" disallow="pedestrian tram rail_urban rail rail_electric rail_fast ship">
        <lane index="0" speed="9.10" type="driving"/>
    </edge>
    <edge id="-7229" from="33" to="31" priority="1" type="driving" numLanes="1" shape="221.16,3683.59 221.20,3683.39 221.52,3682.06 221.90,3680.46 222.29,3678.85 222.61,3677.53 222.66,3677.33" disallow="pedestrian tram rail_urban rail rail_electric rail_fast ship">
        <lane index="0" speed="9.10" type="driving"/>
    </edge>
    <edge id="-7230" from="33" to="34" priority="1" type="driving" numLanes="2" shape="225.81,3695.35 232.23,3696.83 233.75,3697.18 235.59,3697.60 237.53,3698.05 239.37,3698.47 240.89,3698.82 241.09,3698.87" disallow="pedestrian tram rail_urban rail rail_electric rail_fast ship">
        <lane index="0" speed="16.15" type="driving"/>
        <lane index="1" speed="16.15" type="driving"/>
    </edge>
    <edge id="-7231" from="35" to="36" priority="1" type="driving" numLanes="1" shape="252.60,2375.88 243.62,2348.80 243.14,2347.27 242.57,2345.42 241.94,2343.47 241.26,2341.67 240.55,2340.24 239.45,2338.86 237.91,2337.36 236.32,2335.90 235.02,2334.66 233.82,2333.43 232.37,2331.95 230.96,2330.43 229.90,2329.08 229.08,2327.72 228.18,2326.02 227.29,2324.20 226.52,2322.44 225.95,2320.95 225.65,2320.04" disallow="pedestrian tram rail_urban rail rail_electric rail_fast ship">
        <lane index="0" speed="9.10" type="driving"/>
    </edge>
    <edge id="-7232" from="37" to="38" priority="1" type="driving" numLanes="1" shape="518.63,3806.82 519.33,3804.31 519.73,3802.88 520.19,3801.23 520.69,3799.41 521.22,3797.50 521.76,3795.56 522.28,3793.64 522.78,3791.83 523.24,3790.17 523.63,3788.74 524.13,3786.93 524.63,3785.11 525.03,3783.65 525.50,3781.93 526.02,3780.06 526.56,3778.10 527.09,3776.15 527.61,3774.27 528.09,3772.56 528.50,3771.10 528.55,3770.91" disallow="pedestrian tram rail_urban rail rail_electric rail_fast ship">
        <lane index="0" speed="16.15" type="driving"/>
    </edge>
    <edge id="-7233" from="39" to="40" priority="1" type="driving" numLanes="1" shape="210.28,2566.36 209.34,2563.51" disallow="pedestrian tram rail_urban rail rail_electric rail_fast ship">
        <lane index="0" speed="9.10" type="driving"/>
    </edge>
    <edge id="-7234" from="41" to="42" priority="1" type="driving" numLanes="1" shape="227.29,2549.95 227.48,2549.89 229.02,2549.41 230.89,2548.86 232.87,2548.29 234.75,2547.77 236.31,2547.34 250.73,2543.38 252.29,2542.95 254.70,2542.29 256.76,2541.72 257.23,2541.60 257.06,2541.65 257.23,2541.60 257.04,2541.65" disallow="pedestrian tram rail_urban rail rail_electric rail_fast ship">
        <lane index="0" speed="13.49" type="driving"/>
    </edge>
    <edge id="-7235" from="41" to="40" priority="1" type="driving" numLanes="1" shape="216.72,2553.45 213.90,2554.39" disallow="pedestrian tram rail_urban rail rail_electric rail_fast ship">
        <lane index="0" speed="13.49" type="driving"/>
    </edge>
    <edge id="-7236" from="43" to="44" priority="1" type="driving" numLanes="1" shape="907.31,2280.83 910.60,2265.07 910.98,2263.43 911.48,2261.46 911.96,2259.48 912.33,2257.84 916.07,2238.94" disallow="pedestrian tram rail_urban rail rail_electric rail_fast ship">
        <lane index="0" speed="17.99" type="driving"/>
    </edge>
    <edge id="-7237" from="43" to="45" priority="1" type="driving" numLanes="1" shape="904.98,2291.99 903.72,2298.01" disallow="pedestrian tram rail_urban rail rail_electric rail_fast ship">
        <lane index="0" speed="17.99" type="driving"/>
    </edge>
    <edge id="-7238" from="46" to="47" priority="1" type="driving" numLanes="1" shape="767.02,3164.86 765.62,3212.36 765.57,3214.26 765.52,3216.15 764.63,3253.02 764.58,3254.67 764.51,3256.59 764.43,3258.69 764.34,3260.89 764.25,3263.08 764.16,3265.19 764.07,3267.11 763.99,3268.75 763.92,3270.31 763.84,3272.17 763.74,3274.18 763.63,3276.18 763.51,3278.04 763.38,3279.59 763.22,3281.23 763.01,3283.13 762.76,3285.22 762.49,3287.40 762.22,3289.57 761.94,3291.65 761.68,3293.55 761.44,3295.18 761.17,3296.79 760.83,3298.71 760.43,3300.78 760.02,3302.85 759.62,3304.77 759.26,3306.36 758.91,3307.82 758.46,3309.51 757.96,3311.36 757.43,3313.29 756.90,3315.22 756.39,3317.07 755.95,3318.77 755.59,3320.22 751.95,3335.90 751.59,3337.38 751.14,3339.13 750.64,3341.03 750.11,3342.98 749.59,3344.87 749.12,3346.61 748.72,3348.08 748.24,3349.88 747.76,3351.68 738.45,3386.68 738.01,3388.34 737.47,3390.35 736.93,3392.36 736.49,3394.02 726.68,3432.36" disallow="pedestrian tram rail_urban rail rail_electric rail_fast ship">
        <lane index="0" speed="15.74" type="driving"/>
    </edge>
    <edge id="-7239" from="46" to="48" priority="1" type="driving" numLanes="1" shape="767.31,3154.91 767.31,3154.71" disallow="pedestrian tram rail_urban rail rail_electric rail_fast ship">
        <lane index="0" speed="15.74" type="driving"/>
    </edge>
    <edge id="-7240" from="46" to="49" priority="1" type="driving" numLanes="1" shape="775.15,3159.14 792.24,3164.83 793.74,3165.36 795.55,3166.04 797.45,3166.77 799.24,3167.48 800.72,3168.08 802.22,3168.71 804.02,3169.48 805.81,3170.28 807.28,3170.95 808.73,3171.64 810.45,3172.50 812.27,3173.41 814.00,3174.27 815.47,3175.01 816.72,3175.99 818.24,3177.13 819.83,3178.36 821.29,3179.58 822.40,3180.69 822.57,3180.89" disallow="pedestrian tram rail_urban rail rail_electric rail_fast ship">
        <lane index="0" speed="9.10" type="driving"/>
    </edge>
    <edge id="-7241" from="50" to="51" priority="1" type="driving" numLanes="1" shape="376.92,3588.15 374.17,3599.59" disallow="pedestrian tram rail_urban rail rail_electric rail_fast ship">
        <lane index="0" speed="9.10" type="driving"/>
    </edge>
    <edge id="-7242" from="50" to="52" priority="1" type="driving" numLanes="1" shape="380.87,3571.76 383.89,3559.24 384.63,3557.37 385.79,3556.20 387.37,3555.73 389.36,3555.95 393.61,3557.04" disallow="pedestrian tram rail_urban rail rail_electric rail_fast ship">
        <lane index="0" speed="9.10" type="driving"/>
    </edge>
    <edge id="-7243" from="50" to="53" priority="1" type="driving" numLanes="1" shape="369.68,3582.76 351.44,3593.37" disallow="pedestrian tram rail_urban rail rail_electric rail_fast ship">
        <lane index="0" speed="9.10" type="driving"/>
    </edge>
    <edge id="-7244" from="54" to="55" priority="1" type="driving" numLanes="1" shape="248.73,2603.55 268.28,2598.17 269.73,2597.77 271.43,2597.30 272.88,2596.90 273.07,2596.85" disallow="pedestrian tram rail_urban rail rail_electric rail_fast ship">
        <lane index="0" speed="9.10" type="driving"/>
    </edge>
    <edge id="-7245" from="55" to="54" priority="1" type="driving" numLanes="1" shape="273.07,2596.85 272.88,2596.90 271.43,2597.30 269.73,2597.77 268.28,2598.17 248.73,2603.55" disallow="pedestrian tram rail_urban rail rail_electric rail_fast ship">
        <lane index="0" speed="9.10" type="driving"/>
    </edge>
    <edge id="-7246" from="55" to="56" priority="1" type="driving" numLanes="1" shape="281.94,2601.87 282.00,2602.07 282.39,2603.49 282.86,2605.20 283.36,2607.01 283.84,2608.73 284.23,2610.15 298.07,2660.27 298.45,2661.65 298.91,2663.31 299.40,2665.06 299.85,2666.72 300.23,2668.10 300.70,2669.77 301.25,2671.79 301.81,2673.80 302.27,2675.47 307.27,2693.57" disallow="pedestrian tram rail_urban rail rail_electric rail_fast ship">
        <lane index="0" speed="15.74" type="driving"/>
    </edge>
    <edge id="-7247" from="55" to="42" priority="1" type="driving" numLanes="1" shape="278.10,2588.00 271.08,2562.58 270.67,2561.08 270.18,2559.32 269.64,2557.39 269.09,2555.40 268.56,2553.48 268.07,2551.71 267.65,2550.22 267.59,2550.02" disallow="pedestrian tram rail_urban rail rail_electric rail_fast ship">
        <lane index="0" speed="15.74" type="driving"/>
    </edge>
    <edge id="-7248" from="44" to="43" priority="1" type="driving" numLanes="1" shape="916.07,2238.94 912.33,2257.84 911.96,2259.48 911.48,2261.46 910.98,2263.43 910.60,2265.07 907.31,2280.83" disallow="pedestrian tram rail_urban rail rail_electric rail_fast ship">
        <lane index="0" speed="17.99" type="driving"/>
    </edge>
    <edge id="-7249" from="44" to="57" priority="1" type="driving" numLanes="1" shape="910.41,2230.53 907.60,2230.01 905.84,2229.71 903.77,2229.38 902.00,2229.11 900.39,2228.88 898.50,2228.64 896.88,2228.47 894.95,2228.42 893.01,2228.47 891.63,2228.54 889.97,2228.63 888.31,2228.80 886.97,2229.08 884.85,2229.79" disallow="pedestrian tram rail_urban rail rail_electric rail_fast ship">
        <lane index="0" speed="9.10" type="driving"/>
    </edge>
    <edge id="-7250" from="44" to="26" priority="1" type="driving" numLanes="1" shape="919.02,2224.88 931.51,2165.19 931.79,2163.62 932.05,2161.77 932.28,2159.74 932.49,2157.62 932.68,2155.49 932.86,2153.45 933.02,2151.59 933.18,2150.00 933.36,2148.42 933.56,2146.58 933.78,2144.56 934.01,2142.45 934.25,2140.34 934.47,2138.32 934.67,2136.48 934.84,2134.90 935.02,2133.39 935.24,2131.57 935.46,2129.64 935.66,2127.82 935.79,2126.30 937.48,2101.44 937.58,2099.79 937.65,2097.88 937.71,2095.79 937.74,2093.58 937.76,2091.34 937.76,2089.13 937.73,2087.04 937.69,2085.13 937.62,2083.48 936.60,2063.93 936.50,2062.28 936.38,2060.38 936.24,2058.28 936.08,2056.08 935.92,2053.84 935.75,2051.64 935.59,2049.55 935.45,2047.64 935.33,2045.99 935.20,2044.34 935.04,2042.69 934.84,2041.05 934.61,2039.15 934.35,2037.07 934.08,2034.88 933.80,2032.66 933.52,2030.47 933.26,2028.39 933.01,2026.49 932.78,2024.86 932.53,2023.13 932.20,2021.04 931.83,2018.85 931.48,2016.77 931.17,2015.05 930.86,2013.42 930.49,2011.55 930.09,2009.49 929.66,2007.33 929.21,2005.13 928.77,2002.96 928.35,2000.91 927.96,1999.04 927.61,1997.42 927.28,1995.95 926.88,1994.24 926.44,1992.36 925.97,1990.41 925.50,1988.45 925.04,1986.58 924.62,1984.87 924.25,1983.41 923.89,1982.08 923.44,1980.48 922.97,1978.89 922.58,1977.56 922.16,1976.07 921.64,1974.28 921.10,1972.39 920.58,1970.60 920.15,1969.11 919.75,1967.69 919.29,1966.03 918.78,1964.22 918.25,1962.31 917.70,1960.37 917.16,1958.47 916.63,1956.66 916.14,1955.02 915.69,1953.60 915.16,1952.08 914.49,1950.27 913.73,1948.33 912.97,1946.39 912.26,1944.60 911.67,1943.09 910.96,1941.23 910.25,1939.36 907.29,1931.57" disallow="pedestrian tram rail_urban rail rail_electric rail_fast ship">
        <lane index="0" speed="17.99" type="driving"/>
    </edge>
    <edge id="-7251" from="58" to="57" priority="1" type="driving" numLanes="1" shape="816.33,2221.00 819.01,2222.77 820.61,2223.50 822.28,2224.06 823.81,2224.45 825.63,2224.86 827.17,2225.19 828.57,2225.52 830.22,2225.90 831.63,2226.14 833.56,2226.18 835.49,2226.05 836.97,2225.79 838.69,2225.40 840.14,2225.01 841.53,2224.57 843.14,2223.99 844.47,2223.41 845.70,2222.68 847.10,2221.73 848.27,2220.91 849.66,2219.94 851.30,2218.78 852.70,2217.83 854.39,2216.83 856.14,2215.95 857.67,2215.55 859.24,2215.31 860.81,2215.31 862.37,2215.43 864.23,2215.70 866.06,2216.09 867.71,2216.79 869.28,2217.63 870.72,2218.66 872.07,2219.80 873.21,2221.04 874.25,2222.36 875.01,2223.52 875.62,2224.75 875.76,2225.18" disallow="pedestrian tram rail_urban rail rail_electric rail_fast ship">
        <lane index="0" speed="9.10" type="driving"/>
    </edge>
    <edge id="-7252" from="59" to="60" priority="1" type="driving" numLanes="1" shape="413.52,2064.30 413.53,2064.10 413.55,2062.50 413.49,2060.62 413.43,2059.02 413.32,2055.57" disallow="pedestrian tram rail_urban rail rail_electric rail_fast ship">
        <lane index="0" speed="9.10" type="driving"/>
    </edge>
    <edge id="-7253" from="59" to="61" priority="1" type="driving" numLanes="1" shape="414.92,2078.37 414.99,2078.56 415.53,2080.00 416.16,2081.69 416.70,2083.13 434.04,2129.45" disallow="pedestrian tram rail_urban rail rail_electric rail_fast ship">
        <lane index="0" speed="9.10" type="driving"/>
    </edge>
    <edge id="-7254" from="59" to="62" priority="1" type="driving" numLanes="1" shape="405.19,2064.67 388.30,2045.30 388.00,2044.96 382.78,2040.62" disallow="pedestrian tram rail_urban rail rail_electric rail_fast ship">
        <lane index="0" speed="9.10" type="driving"/>
    </edge>
    <edge id="-7255" from="60" to="59" priority="1" type="driving" numLanes="1" shape="413.32,2055.57 413.43,2059.09 413.49,2060.66 413.55,2062.52 413.53,2064.10 413.52,2064.30" disallow="pedestrian tram rail_urban rail rail_electric rail_fast ship">
        <lane index="0" speed="9.10" type="driving"/>
    </edge>
    <edge id="-7256" from="63" to="64" priority="1" type="driving" numLanes="1" shape="676.06,3816.37 676.11,3816.18 676.43,3814.80 676.82,3813.13 677.20,3811.47 677.52,3810.09 678.26,3806.90" disallow="pedestrian tram rail_urban rail rail_electric rail_fast ship">
        <lane index="0" speed="9.10" type="driving"/>
    </edge>
    <edge id="-7257" from="64" to="63" priority="1" type="driving" numLanes="1" shape="678.26,3806.90 677.52,3810.09 677.20,3811.47 676.82,3813.13 676.43,3814.80 676.11,3816.18 676.06,3816.37" disallow="pedestrian tram rail_urban rail rail_electric rail_fast ship">
        <lane index="0" speed="9.10" type="driving"/>
    </edge>
    <edge id="-7258" from="64" to="65" priority="1" type="driving" numLanes="2" shape="683.18,3806.50 710.10,3812.83 711.76,3813.22 713.76,3813.69 715.76,3814.17 717.42,3814.56 717.62,3814.60" disallow="pedestrian tram rail_urban rail rail_electric rail_fast ship">
        <lane index="0" speed="13.49" type="driving"/>
        <lane index="1" speed="13.49" type="driving"/>
    </edge>
    <edge id="-7259" from="66" to="67" priority="1" type="driving" numLanes="1" shape="828.31,3783.56 828.53,3782.77 828.95,3781.22 829.46,3779.36 830.01,3777.40 830.54,3775.55 830.99,3774.01 833.73,3764.71" disallow="pedestrian tram rail_urban rail rail_electric rail_fast ship">
        <lane index="0" speed="9.10" type="driving"/>
    </edge>
    <edge id="-7260" from="68" to="69" priority="1" type="driving" numLanes="1" shape="582.96,2316.30 582.77,2316.36 581.07,2316.91 579.07,2317.57 577.37,2318.12 547.62,2327.91" disallow="pedestrian tram rail_urban rail rail_electric rail_fast ship">
        <lane index="0" speed="9.10" type="driving"/>
    </edge>
    <edge id="-7261" from="68" to="70" priority="1" type="driving" numLanes="1" shape="591.04,2318.01 591.10,2318.20" disallow="pedestrian tram rail_urban rail rail_electric rail_fast ship">
        <lane index="0" speed="14.45" type="driving"/>
    </edge>
    <edge id="-7262" from="68" to="71" priority="1" type="driving" numLanes="1" shape="589.05,2311.33 589.00,2311.14" disallow="pedestrian tram rail_urban rail rail_electric rail_fast ship">
        <lane index="0" speed="14.45" type="driving"/>
    </edge>
    <edge id="-7263" from="72" to="73" priority="1" type="driving" numLanes="2" shape="1494.67,768.90 1487.64,729.60" disallow="pedestrian tram rail_urban rail rail_electric rail_fast ship">
        <lane index="0" speed="20.24" type="driving"/>
        <lane index="1" speed="20.24" type="driving"/>
    </edge>
    <edge id="-7264" from="72" to="74" priority="1" type="driving" numLanes="2" shape="1495.66,774.46 1495.69,774.66" disallow="pedestrian tram rail_urban rail rail_electric rail_fast ship">
        <lane index="0" speed="20.24" type="driving"/>
        <lane index="1" speed="20.24" type="driving"/>
    </edge>
    <edge id="-7265" from="18" to="72" priority="1" type="driving" numLanes="1" shape="1476.95,789.57 1479.35,787.86 1480.35,786.97 1481.44,785.83 1482.36,784.86 1483.63,783.69 1485.19,782.31 1486.68,780.86 1487.72,779.52 1488.76,777.72" disallow="pedestrian tram rail_urban rail rail_electric rail_fast ship">
        <lane index="0" speed="15.74" type="driving"/>
    </edge>
    <edge id="-7266" from="18" to="75" priority="1" type="driving" numLanes="2" shape="1479.40,797.15 1483.74,796.16 1485.51,795.76 1491.97,794.69" disallow="pedestrian tram rail_urban rail rail_electric rail_fast ship">
        <lane index="0" speed="17.99" type="driving"/>
        <lane index="1" speed="17.99" type="driving"/>
    </edge>