<?xml version="1.0" encoding="UTF-8"?>

<!-- generated on 2025-08-13 21:40:27 by Eclipse SUMO netconvert Version 1.18.0
<configuration xmlns:xsi="http://www.w3.org/2001/XMLSchema-instance" xsi:noNamespaceSchemaLocation="http://sumo.dlr.de/xsd/netconvertConfiguration.xsd">

    <input>
        <opendrive-files value="uga.xodr"/>
    </input>

    <output>
        <output-file value="tmp/map.net.xml"/>
        <plain-output-prefix value="tmp/"/>
    </output>

    <junctions>
        <no-turnarounds.except-deadend value="true"/>
    </junctions>

</configuration>
-->

<nodes version="1.16" xmlns:xsi="http://www.w3.org/2001/XMLSchema-instance" xsi:noNamespaceSchemaLocation="http://sumo.dlr.de/xsd/nodes_file.xsd">
    <location netOffset="-279962.57,-3756336.62" convBoundary="0.00,0.00,2338.29,3900.30" origBoundary="0.000000,0.000000,0.000000,0.000000" projParameter="+proj=utm +zone=17 +ellps=WGS84 +datum=WGS84 +units=m +no_defs

        "/>

    <node id="1" x="1734.79" y="870.98" type="priority"/>
    <node id="10" x="379.47" y="1600.44" type="priority"/>
    <node id="100" x="1895.21" y="861.87" type="priority"/>
    <node id="101" x="1500.31" y="799.79" type="priority"/>
    <node id="102" x="1350.26" y="883.60" type="priority"/>
    <node id="103" x="958.00" y="1142.59" type="priority"/>
    <node id="104" x="934.22" y="1121.33" type="priority"/>
    <node id="105" x="1109.73" y="1043.45" type="priority"/>
    <node id="106" x="1418.32" y="1465.61" type="priority"/>
    <node id="107" x="1103.43" y="1031.08" type="priority"/>
    <node id="108" x="892.28" y="3806.41" type="priority"/>
    <node id="109" x="897.80" y="3789.77" type="priority"/>
    <node id="11" x="405.89" y="1599.24" type="priority"/>
    <node id="110" x="893.14" y="3888.51" type="priority"/>
    <node id="111" x="895.85" y="3864.39" type="priority"/>
    <node id="112" x="839.88" y="3851.67" type="priority"/>
    <node id="113" x="911.38" y="3790.53" type="priority"/>
    <node id="114" x="994.52" y="3135.11" type="priority"/>
    <node id="115" x="986.20" y="3135.50" type="priority"/>
    <node id="116" x="1401.90" y="1481.96" type="priority"/>
    <node id="117" x="1391.56" y="1631.88" type="priority"/>
    <node id="118" x="1386.72" y="1432.89" type="priority"/>
    <node id="119" x="1051.72" y="400.31" type="priority"/>
    <node id="12" x="1080.21" y="1058.37" type="priority"/>
    <node id="120" x="1087.13" y="493.13" type="priority"/>
    <node id="121" x="201.60" y="2669.69" type="priority"/>
    <node id="122" x="199.74" y="2654.87" type="priority"/>
    <node id="123" x="189.54" y="2633.27" type="priority"/>
    <node id="124" x="184.10" y="2613.24" type="priority"/>
    <node id="125" x="176.85" y="2572.69" type="priority"/>
    <node id="126" x="177.87" y="2615.42" type="priority"/>
    <node id="127" x="122.62" y="2662.61" type="priority"/>
    <node id="128" x="731.77" y="977.74" type="priority"/>
    <node id="129" x="879.71" y="987.25" type="priority"/>
    <node id="13" x="976.67" y="1104.48" type="priority"/>
    <node id="130" x="806.72" y="3352.37" type="priority"/>
    <node id="131" x="815.63" y="3361.66" type="priority"/>
    <node id="132" x="350.59" y="1224.88" type="priority"/>
    <node id="133" x="353.82" y="1174.55" type="priority"/>
    <node id="134" x="344.69" y="1174.37" type="priority"/>
    <node id="135" x="414.22" y="1174.13" type="traffic_light" tl="135"/>
    <node id="136" x="343.07" y="1224.76" type="priority"/>
    <node id="137" x="291.62" y="1173.09" type="priority"/>
    <node id="138" x="236.56" y="1170.10" type="priority"/>
    <node id="139" x="390.28" y="1760.97" type="priority"/>
    <node id="14" x="1320.73" y="830.30" type="priority"/>
    <node id="140" x="355.45" y="1773.37" type="priority"/>
    <node id="141" x="408.44" y="1756.35" type="priority"/>
    <node id="142" x="312.58" y="1789.97" type="priority"/>
    <node id="143" x="1735.89" y="1195.46" type="priority"/>
    <node id="144" x="1714.55" y="1152.98" type="priority"/>
    <node id="145" x="651.38" y="1194.81" type="traffic_light" tl="145"/>
    <node id="146" x="655.31" y="1232.19" type="priority"/>
    <node id="147" x="912.54" y="1117.23" type="priority"/>
    <node id="148" x="571.12" y="1191.08" type="priority"/>
    <node id="149" x="454.16" y="915.66" type="priority"/>
    <node id="15" x="1362.41" y="858.97" type="priority"/>
    <node id="150" x="413.98" y="1258.38" type="priority"/>
    <node id="151" x="409.52" y="1310.70" type="priority"/>
    <node id="152" x="412.77" y="1195.47" type="priority"/>
    <node id="153" x="407.02" y="1559.85" type="priority"/>
    <node id="154" x="279.33" y="1555.24" type="priority"/>
    <node id="155" x="409.79" y="1449.33" type="priority"/>
    <node id="156" x="409.49" y="1620.28" type="priority"/>
    <node id="157" x="404.87" y="1635.01" type="priority"/>
    <node id="158" x="389.96" y="1636.60" type="priority"/>
    <node id="159" x="403.62" y="1685.54" type="priority"/>
    <node id="16" x="1345.49" y="871.49" type="priority"/>
    <node id="160" x="887.23" y="972.38" type="priority"/>
    <node id="161" x="910.13" y="1042.84" type="priority"/>
    <node id="162" x="911.64" y="969.87" type="priority"/>
    <node id="163" x="275.98" y="2300.50" type="priority"/>
    <node id="164" x="282.17" y="2298.01" type="priority"/>
    <node id="165" x="201.25" y="2317.44" type="priority"/>
    <node id="166" x="201.93" y="2325.48" type="priority"/>
    <node id="167" x="174.15" y="2280.30" type="priority"/>
    <node id="168" x="1052.30" y="3197.59" type="priority"/>
    <node id="169" x="1035.16" y="3166.85" type="priority"/>
    <node id="17" x="1447.68" y="807.08" type="priority"/>
    <node id="170" x="1015.97" y="3272.56" type="priority"/>
    <node id="171" x="969.29" y="3366.46" type="priority"/>
    <node id="172" x="922.63" y="3422.14" type="priority"/>
    <node id="173" x="1067.60" y="3270.63" type="priority"/>
    <node id="174" x="137.90" y="2085.96" type="priority"/>
    <node id="175" x="102.88" y="2147.45" type="priority"/>
    <node id="176" x="152.76" y="2060.82" type="priority"/>
    <node id="177" x="96.51" y="2157.41" type="priority"/>
    <node id="178" x="341.54" y="1804.54" type="priority"/>
    <node id="179" x="241.73" y="1793.95" type="priority"/>
    <node id="18" x="1470.63" y="795.57" type="priority"/>
    <node id="180" x="730.31" y="1993.75" type="priority"/>
    <node id="181" x="730.55" y="2000.43" type="priority"/>
    <node id="182" x="728.19" y="1993.56" type="priority"/>
    <node id="183" x="698.99" y="2013.64" type="priority"/>
    <node id="184" x="842.97" y="1951.72" type="priority"/>
    <node id="185" x="690.49" y="2019.41" type="priority"/>
    <node id="186" x="684.19" y="2020.30" type="priority"/>
    <node id="187" x="691.32" y="2037.75" type="priority"/>
    <node id="188" x="598.40" y="1922.45" type="priority"/>
    <node id="189" x="614.76" y="1965.97" type="priority"/>
    <node id="19" x="854.81" y="1186.48" type="priority"/>
    <node id="190" x="585.85" y="1898.31" type="priority"/>
    <node id="191" x="630.92" y="1959.37" type="priority"/>
    <node id="192" x="619.12" y="1987.06" type="priority"/>
    <node id="193" x="599.54" y="1993.61" type="priority"/>
    <node id="194" x="627.65" y="2011.13" type="priority"/>
    <node id="195" x="637.04" y="2029.56" type="priority"/>
    <node id="196" x="694.52" y="2005.27" type="priority"/>
    <node id="197" x="629.58" y="2029.59" type="priority"/>
    <node id="198" x="642.30" y="2052.63" type="priority"/>
    <node id="199" x="587.31" y="2041.63" type="priority"/>
    <node id="2" x="1697.83" y="890.48" type="priority"/>
    <node id="20" x="788.42" y="1214.69" type="priority"/>
    <node id="200" x="642.59" y="1860.86" type="priority"/>
    <node id="201" x="590.81" y="1878.46" type="priority"/>
    <node id="202" x="513.94" y="1902.51" type="priority"/>
    <node id="203" x="592.00" y="1897.52" type="priority"/>
    <node id="204" x="515.81" y="1915.08" type="priority"/>
    <node id="205" x="463.97" y="1928.63" type="traffic_light" tl="205"/>
    <node id="206" x="399.02" y="2579.38" type="priority"/>
    <node id="207" x="384.65" y="2551.23" type="priority"/>
    <node id="208" x="456.13" y="2711.93" type="priority"/>
    <node id="209" x="415.98" y="2553.50" type="traffic_light" tl="209"/>
    <node id="21" x="933.32" y="1323.79" type="priority"/>
    <node id="210" x="193.35" y="1986.42" type="priority"/>
    <node id="211" x="275.83" y="1907.09" type="priority"/>
    <node id="212" x="57.14" y="2208.05" type="priority"/>
    <node id="213" x="6.84" y="2289.24" type="priority"/>
    <node id="214" x="0.00" y="2174.34" type="priority"/>
    <node id="215" x="66.88" y="2211.17" type="priority"/>
    <node id="216" x="371.81" y="2923.89" type="priority"/>
    <node id="217" x="403.13" y="2916.45" type="priority"/>
    <node id="218" x="378.97" y="2967.73" type="traffic_light" tl="218"/>
    <node id="219" x="351.00" y="2851.68" type="traffic_light" tl="219"/>
    <node id="22" x="850.74" y="1174.39" type="priority"/>
    <node id="220" x="1016.64" y="1230.64" type="priority"/>
    <node id="221" x="1055.53" y="1305.55" type="priority"/>
    <node id="222" x="1035.48" y="1218.36" type="priority"/>
    <node id="223" x="944.20" y="1685.54" type="priority"/>
    <node id="224" x="929.75" y="1663.53" type="priority"/>
    <node id="225" x="897.82" y="1774.55" type="priority"/>
    <node id="226" x="909.06" y="1650.25" type="priority"/>
    <node id="227" x="894.73" y="1647.94" type="priority"/>
    <node id="228" x="862.28" y="1646.87" type="priority"/>
    <node id="229" x="819.45" y="1641.42" type="priority"/>
    <node id="23" x="848.05" y="1821.23" type="priority"/>
    <node id="230" x="760.87" y="1481.18" type="priority"/>
    <node id="231" x="840.57" y="1694.51" type="priority"/>
    <node id="232" x="775.62" y="1362.86" type="priority"/>
    <node id="233" x="771.75" y="1481.43" type="priority"/>
    <node id="234" x="979.15" y="1322.71" type="priority"/>
    <node id="235" x="1008.02" y="1301.59" type="priority"/>
    <node id="236" x="945.02" y="1140.63" type="priority"/>
    <node id="237" x="914.66" y="1129.32" type="priority"/>
    <node id="238" x="1081.36" y="1343.16" type="priority"/>
    <node id="239" x="565.18" y="2046.38" type="priority"/>
    <node id="24" x="814.74" y="1811.90" type="priority"/>
    <node id="240" x="575.68" y="2042.22" type="priority"/>
    <node id="241" x="1261.87" y="751.24" type="priority"/>
    <node id="242" x="1448.71" y="1561.14" type="priority"/>
    <node id="243" x="928.60" y="1083.90" type="priority"/>
    <node id="244" x="1290.27" y="1407.99" type="priority"/>
    <node id="245" x="1310.12" y="1410.48" type="priority"/>
    <node id="246" x="1284.27" y="1557.12" type="priority"/>
    <node id="247" x="1252.20" y="1349.73" type="priority"/>
    <node id="248" x="1183.66" y="1325.30" type="priority"/>
    <node id="249" x="1100.65" y="1386.77" type="priority"/>
    <node id="25" x="836.83" y="1802.06" type="traffic_light" tl="25"/>
    <node id="250" x="1067.85" y="1353.60" type="priority"/>
    <node id="251" x="937.35" y="3072.56" type="priority"/>
    <node id="252" x="883.19" y="3070.48" type="traffic_light" tl="252"/>
    <node id="253" x="1177.46" y="1293.11" type="priority"/>
    <node id="254" x="1119.50" y="420.50" type="priority"/>
    <node id="255" x="1214.27" y="529.92" type="priority"/>
    <node id="256" x="783.75" y="1205.64" type="priority"/>
    <node id="257" x="815.57" y="1239.44" type="priority"/>
    <node id="258" x="753.41" y="1282.05" type="priority"/>
    <node id="259" x="758.75" y="1313.97" type="priority"/>
    <node id="26" x="903.30" y="1924.81" type="traffic_light" tl="26"/>
    <node id="260" x="800.39" y="1350.07" type="priority"/>
    <node id="261" x="503.57" y="3381.74" type="priority"/>
    <node id="262" x="709.55" y="2090.34" type="priority"/>
    <node id="263" x="654.98" y="2106.04" type="priority"/>
    <node id="264" x="747.38" y="2179.17" type="priority"/>
    <node id="265" x="640.45" y="2122.59" type="priority"/>
    <node id="266" x="944.27" y="2255.85" type="priority"/>
    <node id="267" x="959.08" y="2269.26" type="priority"/>
    <node id="268" x="968.04" y="2224.77" type="priority"/>
    <node id="269" x="935.33" y="2415.38" type="priority"/>
    <node id="27" x="803.25" y="1815.78" type="priority"/>
    <node id="270" x="904.86" y="2429.73" type="priority"/>
    <node id="271" x="879.62" y="2617.66" type="priority"/>
    <node id="272" x="884.40" y="2580.09" type="priority"/>
    <node id="273" x="837.83" y="2636.34" type="priority"/>
    <node id="274" x="1058.74" y="2220.62" type="priority"/>
    <node id="275" x="566.97" y="1371.34" type="priority"/>
    <node id="276" x="567.85" y="1238.81" type="priority"/>
    <node id="277" x="513.73" y="1187.19" type="priority"/>
    <node id="278" x="438.25" y="1176.65" type="priority"/>
    <node id="279" x="576.28" y="2570.65" type="priority"/>
    <node id="28" x="257.14" y="3657.62" type="priority"/>
    <node id="280" x="732.47" y="2420.16" type="priority"/>
    <node id="281" x="628.62" y="2440.57" type="priority"/>
    <node id="282" x="403.82" y="1953.78" type="priority"/>
    <node id="283" x="346.64" y="2012.09" type="priority"/>
    <node id="284" x="361.96" y="1923.53" type="priority"/>
    <node id="285" x="444.92" y="2458.47" type="priority"/>
    <node id="286" x="426.44" y="2536.64" type="priority"/>
    <node id="287" x="490.00" y="2444.48" type="priority"/>
    <node id="288" x="417.87" y="2352.81" type="priority"/>
    <node id="289" x="950.40" y="2820.21" type="priority"/>
    <node id="29" x="227.32" y="3652.88" type="priority"/>
    <node id="290" x="985.48" y="2820.35" type="priority"/>
    <node id="291" x="993.95" y="2811.96" type="priority"/>
    <node id="292" x="949.26" y="2811.42" type="priority"/>
    <node id="293" x="941.41" y="2846.50" type="priority"/>
    <node id="294" x="994.02" y="2824.06" type="priority"/>
    <node id="295" x="1064.87" y="2860.07" type="priority"/>
    <node id="296" x="1131.95" y="2865.65" type="priority"/>
    <node id="297" x="1232.80" y="577.29" type="priority"/>
    <node id="298" x="1280.11" y="598.54" type="priority"/>
    <node id="299" x="1301.02" y="627.83" type="priority"/>
    <node id="3" x="1702.51" y="859.80" type="priority"/>
    <node id="30" x="271.78" y="3603.57" type="traffic_light" tl="30"/>
    <node id="300" x="1329.03" y="562.40" type="priority"/>
    <node id="301" x="1350.66" y="568.79" type="priority"/>
    <node id="302" x="1201.46" y="540.72" type="priority"/>
    <node id="303" x="1004.75" y="3583.42" type="priority"/>
    <node id="304" x="829.02" y="3536.49" type="priority"/>
    <node id="305" x="934.81" y="3675.16" type="priority"/>
    <node id="306" x="929.79" y="1331.15" type="priority"/>
    <node id="307" x="806.13" y="1358.96" type="priority"/>
    <node id="308" x="815.32" y="2477.48" type="priority"/>
    <node id="309" x="785.56" y="2476.36" type="priority"/>
    <node id="31" x="225.41" y="3672.64" type="priority"/>
    <node id="310" x="815.12" y="2467.88" type="priority"/>
    <node id="311" x="349.25" y="3392.70" type="priority"/>
    <node id="312" x="364.31" y="3394.09" type="priority"/>
    <node id="313" x="350.09" y="3406.86" type="priority"/>
    <node id="314" x="326.88" y="3387.55" type="priority"/>
    <node id="315" x="330.81" y="3361.32" type="priority"/>
    <node id="316" x="330.06" y="3340.99" type="priority"/>
    <node id="317" x="613.07" y="1809.74" type="priority"/>
    <node id="318" x="611.59" y="1797.54" type="priority"/>
    <node id="319" x="619.77" y="1716.94" type="priority"/>
    <node id="32" x="252.04" y="3679.14" type="priority"/>
    <node id="320" x="483.53" y="1741.71" type="priority"/>
    <node id="321" x="739.05" y="1649.53" type="priority"/>
    <node id="322" x="683.99" y="1407.01" type="priority"/>
    <node id="323" x="713.58" y="1659.80" type="priority"/>
    <node id="324" x="765.90" y="1698.14" type="priority"/>
    <node id="325" x="497.40" y="2441.08" type="priority"/>
    <node id="326" x="617.63" y="2301.01" type="priority"/>
    <node id="327" x="385.86" y="2328.74" type="priority"/>
    <node id="328" x="867.63" y="3383.38" type="priority"/>
    <node id="329" x="840.39" y="3403.89" type="priority"/>
    <node id="33" x="222.29" y="3689.10" type="priority"/>
    <node id="330" x="888.20" y="3145.48" type="traffic_light" tl="330"/>
    <node id="331" x="715.02" y="3439.52" type="priority"/>
    <node id="332" x="802.79" y="3397.75" type="priority"/>
    <node id="333" x="753.09" y="3498.14" type="priority"/>
    <node id="334" x="709.52" y="3497.24" type="priority"/>
    <node id="335" x="678.02" y="3580.75" type="priority"/>
    <node id="336" x="858.26" y="3064.31" type="priority"/>
    <node id="337" x="839.87" y="3059.33" type="priority"/>
    <node id="338" x="626.36" y="2998.02" type="priority"/>
    <node id="339" x="786.42" y="3829.81" type="priority"/>
    <node id="34" x="248.07" y="3697.98" type="traffic_light" tl="34"/>
    <node id="340" x="786.24" y="3832.53" type="priority"/>
    <node id="341" x="850.69" y="3195.25" type="priority"/>
    <node id="342" x="769.13" y="3139.41" type="traffic_light" tl="342"/>
    <node id="343" x="320.85" y="2544.06" type="priority"/>
    <node id="344" x="494.34" y="3056.80" type="priority"/>
    <node id="345" x="542.98" y="3136.82" type="priority"/>
    <node id="346" x="601.07" y="3131.00" type="traffic_light" tl="346"/>
    <node id="347" x="427.25" y="3151.35" type="traffic_light" tl="347"/>
    <node id="348" x="480.71" y="3368.87" type="priority"/>
    <node id="349" x="467.71" y="2823.44" type="priority"/>
    <node id="35" x="252.60" y="2376.94" type="priority"/>
    <node id="350" x="408.07" y="2776.91" type="priority"/>
    <node id="351" x="412.72" y="2822.16" type="priority"/>
    <node id="352" x="408.58" y="2834.86" type="priority"/>
    <node id="353" x="387.83" y="2841.67" type="priority"/>
    <node id="354" x="416.99" y="2831.86" type="priority"/>
    <node id="355" x="472.97" y="2809.76" type="priority"/>
    <node id="356" x="497.92" y="2803.24" type="priority"/>
    <node id="357" x="478.07" y="2821.65" type="priority"/>
    <node id="358" x="503.11" y="2815.14" type="priority"/>
    <node id="359" x="514.49" y="2858.13" type="priority"/>
    <node id="36" x="223.83" y="2314.85" type="priority"/>
    <node id="360" x="445.46" y="2823.66" type="priority"/>
    <node id="361" x="442.64" y="2827.25" type="priority"/>
    <node id="362" x="438.67" y="2818.08" type="priority"/>
    <node id="363" x="443.91" y="2820.64" type="priority"/>
    <node id="364" x="793.76" y="2469.99" type="priority"/>
    <node id="365" x="809.54" y="2549.37" type="priority"/>
    <node id="366" x="824.11" y="2550.19" type="priority"/>
    <node id="367" x="454.80" y="2649.28" type="priority"/>
    <node id="368" x="486.34" y="2716.34" type="priority"/>
    <node id="369" x="846.61" y="1978.58" type="priority"/>
    <node id="37" x="518.63" y="3807.96" type="priority"/>
    <node id="370" x="856.20" y="1942.58" type="priority"/>
    <node id="371" x="866.30" y="1962.24" type="priority"/>
    <node id="372" x="861.49" y="1945.16" type="priority"/>
    <node id="373" x="863.60" y="1940.49" type="priority"/>
    <node id="374" x="863.25" y="2269.87" type="priority"/>
    <node id="375" x="786.15" y="2282.51" type="priority"/>
    <node id="376" x="800.73" y="2327.54" type="priority"/>
    <node id="377" x="849.41" y="2310.52" type="priority"/>
    <node id="378" x="795.05" y="2316.44" type="priority"/>
    <node id="379" x="731.03" y="2393.37" type="priority"/>
    <node id="38" x="528.98" y="3769.77" type="traffic_light" tl="38"/>
    <node id="380" x="416.67" y="2531.46" type="priority"/>
    <node id="381" x="317.54" y="2522.55" type="priority"/>
    <node id="382" x="722.75" y="2395.93" type="priority"/>
    <node id="383" x="495.02" y="2456.92" type="priority"/>
    <node id="384" x="716.27" y="2465.15" type="priority"/>
    <node id="385" x="715.26" y="2481.75" type="priority"/>
    <node id="386" x="715.90" y="2441.41" type="priority"/>
    <node id="387" x="822.16" y="2347.97" type="priority"/>
    <node id="388" x="850.69" y="2336.07" type="priority"/>
    <node id="389" x="852.92" y="2350.60" type="priority"/>
    <node id="39" x="210.28" y="2567.42" type="priority"/>
    <node id="390" x="874.01" y="2303.14" type="priority"/>
    <node id="391" x="993.22" y="2247.31" type="priority"/>
    <node id="392" x="898.63" y="2567.11" type="priority"/>
    <node id="393" x="781.66" y="3607.48" type="priority"/>
    <node id="394" x="789.38" y="3608.61" type="priority"/>
    <node id="395" x="764.71" y="3601.30" type="priority"/>
    <node id="396" x="809.87" y="3612.49" type="priority"/>
    <node id="397" x="359.18" y="2024.35" type="priority"/>
    <node id="398" x="256.36" y="2127.10" type="traffic_light" tl="398"/>
    <node id="399" x="473.85" y="2158.90" type="priority"/>
    <node id="4" x="314.57" y="3718.65" type="priority"/>
    <node id="40" x="206.56" y="2559.45" type="priority"/>
    <node id="400" x="418.51" y="2155.75" type="priority"/>
    <node id="401" x="429.48" y="2188.00" type="priority"/>
    <node id="402" x="432.07" y="2199.75" type="priority"/>
    <node id="403" x="454.91" y="2240.70" type="priority"/>
    <node id="404" x="448.32" y="2242.81" type="priority"/>
    <node id="405" x="452.53" y="2258.55" type="priority"/>
    <node id="406" x="369.59" y="2221.00" type="priority"/>
    <node id="407" x="303.24" y="2139.11" type="priority"/>
    <node id="408" x="296.21" y="2148.37" type="priority"/>
    <node id="409" x="579.12" y="2026.93" type="priority"/>
    <node id="41" x="222.00" y="2551.47" type="priority"/>
    <node id="410" x="572.92" y="2028.79" type="priority"/>
    <node id="411" x="562.34" y="1992.80" type="priority"/>
    <node id="412" x="557.96" y="1983.85" type="priority"/>
    <node id="413" x="569.28" y="1983.46" type="priority"/>
    <node id="414" x="590.94" y="2075.88" type="priority"/>
    <node id="415" x="593.22" y="2054.73" type="priority"/>
    <node id="416" x="606.59" y="2057.09" type="priority"/>
    <node id="417" x="405.76" y="2323.12" type="priority"/>
    <node id="418" x="396.06" y="2278.39" type="priority"/>
    <node id="419" x="185.72" y="2214.31" type="priority"/>
    <node id="42" x="265.42" y="2541.85" type="traffic_light" tl="42"/>
    <node id="420" x="152.17" y="2261.31" type="traffic_light" tl="420"/>
    <node id="421" x="379.45" y="1690.77" type="priority"/>
    <node id="422" x="408.91" y="1717.61" type="priority"/>
    <node id="423" x="284.18" y="1906.29" type="priority"/>
    <node id="424" x="386.93" y="1893.96" type="priority"/>
    <node id="425" x="365.00" y="1906.05" type="priority"/>
    <node id="426" x="335.07" y="1891.33" type="priority"/>
    <node id="427" x="319.79" y="1886.90" type="priority"/>
    <node id="428" x="442.98" y="911.39" type="priority"/>
    <node id="429" x="428.26" y="926.80" type="priority"/>
    <node id="43" x="905.44" y="2286.41" type="priority"/>
    <node id="430" x="426.83" y="993.83" type="priority"/>
    <node id="431" x="7.61" y="904.58" type="priority"/>
    <node id="432" x="451.09" y="996.59" type="priority"/>
    <node id="433" x="419.92" y="1045.61" type="priority"/>
    <node id="434" x="462.17" y="1157.72" type="priority"/>
    <node id="435" x="421.39" y="1086.31" type="priority"/>
    <node id="436" x="540.43" y="1120.53" type="priority"/>
    <node id="437" x="642.12" y="1234.45" type="priority"/>
    <node id="438" x="669.73" y="1321.29" type="priority"/>
    <node id="439" x="657.77" y="1323.48" type="priority"/>
    <node id="44" x="915.99" y="2231.89" type="priority"/>
    <node id="440" x="602.58" y="1354.41" type="priority"/>
    <node id="441" x="667.83" y="1410.28" type="priority"/>
    <node id="442" x="666.34" y="1426.92" type="priority"/>
    <node id="443" x="421.76" y="1325.00" type="priority"/>
    <node id="444" x="413.39" y="1325.03" type="priority"/>
    <node id="445" x="414.09" y="1391.65" type="priority"/>
    <node id="446" x="462.69" y="1519.60" type="priority"/>
    <node id="447" x="462.25" y="1537.37" type="priority"/>
    <node id="448" x="578.28" y="1622.00" type="priority"/>
    <node id="449" x="438.23" y="1618.84" type="priority"/>
    <node id="45" x="900.73" y="2305.09" type="traffic_light" tl="45"/>
    <node id="450" x="625.86" y="1547.21" type="priority"/>
    <node id="451" x="733.67" y="1717.18" type="priority"/>
    <node id="452" x="539.34" y="1722.49" type="priority"/>
    <node id="453" x="526.68" y="1687.53" type="priority"/>
    <node id="454" x="592.03" y="1714.06" type="priority"/>
    <node id="455" x="761.06" y="1796.01" type="priority"/>
    <node id="456" x="789.00" y="1787.18" type="priority"/>
    <node id="457" x="744.73" y="1777.80" type="priority"/>
    <node id="458" x="684.58" y="1814.10" type="priority"/>
    <node id="459" x="533.64" y="1680.22" type="priority"/>
    <node id="46" x="769.99" y="3159.89" type="priority"/>
    <node id="460" x="639.31" y="1787.32" type="priority"/>
    <node id="461" x="531.12" y="1662.33" type="priority"/>
    <node id="462" x="594.44" y="1658.45" type="priority"/>
    <node id="463" x="651.48" y="1601.52" type="priority"/>
    <node id="464" x="634.41" y="1847.12" type="priority"/>
    <node id="465" x="615.68" y="1541.96" type="priority"/>
    <node id="466" x="627.00" y="1735.23" type="priority"/>
    <node id="467" x="793.70" y="1798.99" type="priority"/>
    <node id="468" x="580.72" y="1669.76" type="priority"/>
    <node id="469" x="641.90" y="1625.32" type="priority"/>
    <node id="47" x="717.45" y="3435.51" type="priority"/>
    <node id="470" x="326.76" y="1887.11" type="priority"/>
    <node id="471" x="302.49" y="1855.59" type="priority"/>
    <node id="472" x="304.59" y="1862.72" type="priority"/>
    <node id="473" x="960.87" y="1856.98" type="priority"/>
    <node id="474" x="915.06" y="1800.15" type="priority"/>
    <node id="475" x="1317.52" y="1437.27" type="priority"/>
    <node id="476" x="1306.18" y="1439.17" type="priority"/>
    <node id="477" x="1304.52" y="1381.11" type="priority"/>
    <node id="478" x="1313.84" y="1405.89" type="priority"/>
    <node id="479" x="1220.14" y="1275.96" type="priority"/>
    <node id="48" x="769.74" y="3150.40" type="priority"/>
    <node id="480" x="1311.15" y="1415.09" type="priority"/>
    <node id="481" x="1217.59" y="1255.26" type="priority"/>
    <node id="482" x="1178.66" y="1281.60" type="priority"/>
    <node id="483" x="1171.61" y="1263.76" type="priority"/>
    <node id="484" x="1102.72" y="1177.16" type="priority"/>
    <node id="485" x="1098.28" y="1148.16" type="priority"/>
    <node id="486" x="1110.79" y="1145.98" type="priority"/>
    <node id="487" x="1125.98" y="1190.53" type="priority"/>
    <node id="488" x="1124.07" y="1132.79" type="priority"/>
    <node id="489" x="1057.21" y="1252.25" type="priority"/>
    <node id="49" x="822.75" y="3181.25" type="priority"/>
    <node id="490" x="1152.81" y="1294.32" type="priority"/>
    <node id="491" x="1148.08" y="1266.28" type="priority"/>
    <node id="492" x="1167.71" y="1239.64" type="priority"/>
    <node id="493" x="1144.32" y="1235.87" type="priority"/>
    <node id="494" x="1142.08" y="1217.03" type="priority"/>
    <node id="495" x="1076.67" y="1417.37" type="priority"/>
    <node id="496" x="1055.62" y="1350.42" type="priority"/>
    <node id="497" x="1025.48" y="1423.65" type="priority"/>
    <node id="498" x="1055.73" y="1419.47" type="priority"/>
    <node id="499" x="833.70" y="1160.77" type="priority"/>
    <node id="5" x="386.75" y="3730.86" type="traffic_light" tl="5"/>
    <node id="50" x="376.03" y="3579.96" type="priority"/>
    <node id="500" x="859.55" y="1152.67" type="priority"/>
    <node id="501" x="817.46" y="1398.86" type="priority"/>
    <node id="502" x="804.98" y="1396.05" type="priority"/>
    <node id="503" x="794.40" y="1290.59" type="priority"/>
    <node id="504" x="740.20" y="1316.73" type="priority"/>
    <node id="505" x="779.10" y="1462.05" type="priority"/>
    <node id="506" x="841.81" y="1589.76" type="priority"/>
    <node id="507" x="301.50" y="2954.41" type="priority"/>
    <node id="508" x="287.94" y="2984.10" type="priority"/>
    <node id="509" x="278.20" y="2987.13" type="priority"/>
    <node id="51" x="372.51" y="3605.06" type="priority"/>
    <node id="510" x="196.67" y="2964.30" type="priority"/>
    <node id="511" x="259.21" y="2978.71" type="priority"/>
    <node id="512" x="292.65" y="2864.82" type="priority"/>
    <node id="513" x="269.23" y="2939.64" type="priority"/>
    <node id="514" x="733.30" y="2335.48" type="priority"/>
    <node id="515" x="257.87" y="3063.17" type="priority"/>
    <node id="516" x="267.64" y="3057.96" type="priority"/>
    <node id="517" x="268.64" y="3065.82" type="priority"/>
    <node id="518" x="262.88" y="3066.06" type="priority"/>
    <node id="519" x="273.12" y="3073.57" type="priority"/>
    <node id="52" x="400.53" y="3559.91" type="priority"/>
    <node id="520" x="231.78" y="3223.59" type="priority"/>
    <node id="521" x="276.64" y="3118.49" type="priority"/>
    <node id="522" x="344.86" y="3211.09" type="priority"/>
    <node id="523" x="344.19" y="3270.22" type="priority"/>
    <node id="524" x="365.34" y="3269.51" type="priority"/>
    <node id="525" x="342.27" y="3318.47" type="priority"/>
    <node id="526" x="358.96" y="3321.34" type="priority"/>
    <node id="527" x="375.79" y="3348.14" type="priority"/>
    <node id="528" x="393.08" y="3403.38" type="priority"/>
    <node id="529" x="434.25" y="3411.05" type="traffic_light" tl="529"/>
    <node id="53" x="344.31" y="3597.94" type="priority"/>