<?xml version="1.0" encoding="UTF-8"?>

<!-- generated on 2025-08-13 21:40:27 by Eclipse SUMO netconvert Version 1.18.0
<configuration xmlns:xsi="http://www.w3.org/2001/XMLSchema-instance" xsi:noNamespaceSchemaLocation="http://sumo.dlr.de/xsd/netconvertConfiguration.xsd">

    <input>
        <opendrive-files value="uga.xodr"/>
    </input>

    <output>
        <output-file value="tmp/map.net.xml"/>
        <plain-output-prefix value="tmp/"/>
    </output>

    <junctions>
        <no-turnarounds.except-deadend value="true"/>
    </junctions>

</configuration>
-->

<tlLogics version="1.16" xmlns:xsi="http://www.w3.org/2001/XMLSchema-instance" xsi:noNamespaceSchemaLocation="http://sumo.dlr.de/xsd/tllogic_file.xsd">
    <tlLogic id="135" type="static" programID="0" offset="0">
        <phase duration="42" state="rrrrGGggrrrrGGgg"/>
        <phase duration="3"  state="rrrryyyyrrrryyyy"/>
        <phase duration="42" state="GGggrrrrGGggrrrr"/>
        <phase duration="3"  state="yyyyrrrryyyyrrrr"/>
        <param key="linkSignalID:0" value="67267920_0 67267920_1 67267920_2 67267920_3"/>
        <param key="linkSignalID:1" value="67267920_0 67267920_1 67267920_2 67267920_3"/>
        <param key="linkSignalID:10" value="67267920_10 67267920_11 67267920_8 67267920_9"/>
        <param key="linkSignalID:11" value="67267920_10 67267920_11 67267920_8 67267920_9"/>
        <param key="linkSignalID:12" value="67267920_12 67267920_13 67267920_14 67267920_15"/>
        <param key="linkSignalID:13" value="67267920_12 67267920_13 67267920_14 67267920_15"/>
        <param key="linkSignalID:14" value="67267920_12 67267920_13 67267920_14 67267920_15"/>
        <param key="linkSignalID:15" value="67267920_12 67267920_13 67267920_14 67267920_15"/>
        <param key="linkSignalID:2" value="67267920_0 67267920_1 67267920_2 67267920_3"/>
        <param key="linkSignalID:3" value="67267920_0 67267920_1 67267920_2 67267920_3"/>
        <param key="linkSignalID:4" value="67267920_4 67267920_5 67267920_6 67267920_7"/>
        <param key="linkSignalID:5" value="67267920_4 67267920_5 67267920_6 67267920_7"/>
        <param key="linkSignalID:6" value="67267920_4 67267920_5 67267920_6 67267920_7"/>
        <param key="linkSignalID:7" value="67267920_4 67267920_5 67267920_6 67267920_7"/>
        <param key="linkSignalID:8" value="67267920_10 67267920_11 67267920_8 67267920_9"/>
        <param key="linkSignalID:9" value="67267920_10 67267920_11 67267920_8 67267920_9"/>
    </tlLogic>
    <tlLogic id="145" type="static" programID="0" offset="0">
        <phase duration="42" state="GGGggrrrrGGggrrrrrrr"/>
        <phase duration="3"  state="yyyyyrrrryyyyrrrrrrr"/>
        <phase duration="42" state="rrrrrGGggrrrrGGGGGgg"/>
        <phase duration="3"  state="rrrrryyyyrrrryyyyyyy"/>
        <param key="linkSignalID:0" value="1902292793_0 1902292793_1 1902292793_2 1902292793_3 1902292793_4"/>
        <param key="linkSignalID:1" value="1902292793_0 1902292793_1 1902292793_2 1902292793_3 1902292793_4"/>
        <param key="linkSignalID:10" value="1902292793_10 1902292793_9"/>
        <param key="linkSignalID:11" value="1902292793_10 1902292793_9"/>
        <param key="linkSignalID:12" value="1902292793_10 1902292793_9"/>
        <param key="linkSignalID:13" value="1902292793_13 1902292793_14 1902292793_15 1902292793_16 1902292793_17 1902292793_18 1902292793_19"/>
        <param key="linkSignalID:14" value="1902292793_13 1902292793_14 1902292793_15 1902292793_16 1902292793_17 1902292793_18 1902292793_19"/>
        <param key="linkSignalID:15" value="1902292793_13 1902292793_14 1902292793_15 1902292793_16 1902292793_17 1902292793_18 1902292793_19"/>
        <param key="linkSignalID:16" value="1902292793_13 1902292793_14 1902292793_15 1902292793_16 1902292793_17 1902292793_18 1902292793_19"/>
        <param key="linkSignalID:17" value="1902292793_13 1902292793_14 1902292793_15 1902292793_16 1902292793_17 1902292793_18 1902292793_19"/>
        <param key="linkSignalID:18" value="1902292793_13 1902292793_14 1902292793_15 1902292793_16 1902292793_17 1902292793_18 1902292793_19"/>
        <param key="linkSignalID:19" value="1902292793_13 1902292793_14 1902292793_15 1902292793_16 1902292793_17 1902292793_18 1902292793_19"/>
        <param key="linkSignalID:2" value="1902292793_0 1902292793_1 1902292793_2 1902292793_3 1902292793_4"/>
        <param key="linkSignalID:3" value="1902292793_0 1902292793_1 1902292793_2 1902292793_3 1902292793_4"/>
        <param key="linkSignalID:4" value="1902292793_0 1902292793_1 1902292793_2 1902292793_3 1902292793_4"/>
        <param key="linkSignalID:5" value="1902292793_5 1902292793_6"/>
        <param key="linkSignalID:6" value="1902292793_5 1902292793_6"/>
        <param key="linkSignalID:7" value="1902292793_5 1902292793_6"/>
        <param key="linkSignalID:8" value="1902292793_5 1902292793_6"/>
        <param key="linkSignalID:9" value="1902292793_10 1902292793_9"/>
    </tlLogic>
    <tlLogic id="205" type="static" programID="0" offset="0">
        <phase duration="42" state="GggrrrGGg"/>
        <phase duration="3"  state="yyyrrryyy"/>
        <phase duration="42" state="rrrGGgGrr"/>
        <phase duration="3"  state="rrryyyyrr"/>
        <param key="linkSignalID:0" value="67267936_0 67267936_1 67267936_2"/>
        <param key="linkSignalID:1" value="67267936_0 67267936_1 67267936_2"/>
        <param key="linkSignalID:2" value="67267936_0 67267936_1 67267936_2"/>
        <param key="linkSignalID:3" value="67267936_3 67267936_4 67267936_5"/>
        <param key="linkSignalID:4" value="67267936_3 67267936_4 67267936_5"/>
        <param key="linkSignalID:5" value="67267936_3 67267936_4 67267936_5"/>
        <param key="linkSignalID:6" value="67267936_6 67267936_7 67267936_8"/>
        <param key="linkSignalID:7" value="67267936_6 67267936_7 67267936_8"/>
        <param key="linkSignalID:8" value="67267936_6 67267936_7 67267936_8"/>
    </tlLogic>
    <tlLogic id="209" type="static" programID="0" offset="0">
        <phase duration="42" state="rrrrGGggrrrrGGgg"/>
        <phase duration="3"  state="rrrryyyyrrrryyyy"/>
        <phase duration="42" state="GGggrrrrGGggrrrr"/>
        <phase duration="3"  state="yyyyrrrryyyyrrrr"/>
        <param key="linkSignalID:0" value="67248983_0 67248983_1 67248983_2 67248983_3"/>
        <param key="linkSignalID:1" value="67248983_0 67248983_1 67248983_2 67248983_3"/>
        <param key="linkSignalID:10" value="67248983_10 67248983_11 67248983_8 67248983_9"/>
        <param key="linkSignalID:11" value="67248983_10 67248983_11 67248983_8 67248983_9"/>
        <param key="linkSignalID:12" value="67248983_12 67248983_13 67248983_14 67248983_15"/>
        <param key="linkSignalID:13" value="67248983_12 67248983_13 67248983_14 67248983_15"/>
        <param key="linkSignalID:14" value="67248983_12 67248983_13 67248983_14 67248983_15"/>
        <param key="linkSignalID:15" value="67248983_12 67248983_13 67248983_14 67248983_15"/>
        <param key="linkSignalID:2" value="67248983_0 67248983_1 67248983_2 67248983_3"/>
        <param key="linkSignalID:3" value="67248983_0 67248983_1 67248983_2 67248983_3"/>
        <param key="linkSignalID:4" value="67248983_4 67248983_5 67248983_6 67248983_7"/>
        <param key="linkSignalID:5" value="67248983_4 67248983_5 67248983_6 67248983_7"/>
        <param key="linkSignalID:6" value="67248983_4 67248983_5 67248983_6 67248983_7"/>
        <param key="linkSignalID:7" value="67248983_4 67248983_5 67248983_6 67248983_7"/>
        <param key="linkSignalID:8" value="67248983_10 67248983_11 67248983_8 67248983_9"/>
        <param key="linkSignalID:9" value="67248983_10 67248983_11 67248983_8 67248983_9"/>
    </tlLogic>
    <tlLogic id="218" type="static" programID="0" offset="0">
        <phase duration="42" state="GGgGggrrr"/>
        <phase duration="3"  state="yyyyyyrrr"/>
        <phase duration="42" state="GrrrrrGGg"/>
        <phase duration="3"  state="yrrrrryyy"/>
        <param key="linkSignalID:0" value="67291590_0 67291590_1 67291590_2"/>
        <param key="linkSignalID:1" value="67291590_0 67291590_1 67291590_2"/>
        <param key="linkSignalID:2" value="67291590_0 67291590_1 67291590_2"/>
        <param key="linkSignalID:3" value="67291590_3 67291590_4 67291590_5"/>
        <param key="linkSignalID:4" value="67291590_3 67291590_4 67291590_5"/>
        <param key="linkSignalID:5" value="67291590_3 67291590_4 67291590_5"/>
        <param key="linkSignalID:6" value="67291590_6 67291590_7 67291590_8"/>
        <param key="linkSignalID:7" value="67291590_6 67291590_7 67291590_8"/>
        <param key="linkSignalID:8" value="67291590_6 67291590_7 67291590_8"/>
    </tlLogic>
    <tlLogic id="219" type="static" programID="0" offset="0">
        <phase duration="42" state="rrrrGGggrrrrGGgg"/>
        <phase duration="3"  state="rrrryyyyrrrryyyy"/>
        <phase duration="42" state="GGggrrrrGGggrrrr"/>
        <phase duration="3"  state="yyyyrrrryyyyrrrr"/>
        <param key="linkSignalID:0" value="67304733_0 67304733_1 67304733_2 67304733_3"/>
        <param key="linkSignalID:1" value="67304733_0 67304733_1 67304733_2 67304733_3"/>
        <param key="linkSignalID:10" value="67304733_10 67304733_11 67304733_8 67304733_9"/>
        <param key="linkSignalID:11" value="67304733_10 67304733_11 67304733_8 67304733_9"/>
        <param key="linkSignalID:12" value="67304733_12 67304733_13 67304733_14 67304733_15"/>
        <param key="linkSignalID:13" value="67304733_12 67304733_13 67304733_14 67304733_15"/>
        <param key="linkSignalID:14" value="67304733_12 67304733_13 67304733_14 67304733_15"/>
        <param key="linkSignalID:15" value="67304733_12 67304733_13 67304733_14 67304733_15"/>
        <param key="linkSignalID:2" value="67304733_0 67304733_1 67304733_2 67304733_3"/>
        <param key="linkSignalID:3" value="67304733_0 67304733_1 67304733_2 67304733_3"/>
        <param key="linkSignalID:4" value="67304733_4 67304733_5 67304733_6 67304733_7"/>
        <param key="linkSignalID:5" value="67304733_4 67304733_5 67304733_6 67304733_7"/>
        <param key="linkSignalID:6" value="67304733_4 67304733_5 67304733_6 67304733_7"/>
        <param key="linkSignalID:7" value="67304733_4 67304733_5 67304733_6 67304733_7"/>
        <param key="linkSignalID:8" value="67304733_10 67304733_11 67304733_8 67304733_9"/>
        <param key="linkSignalID:9" value="67304733_10 67304733_11 67304733_8 67304733_9"/>
    </tlLogic>
    <tlLogic id="25" type="static" programID="0" offset="0">
        <phase duration="42" state="GGggrrrrGGggrrrr"/>
        <phase duration="3"  state="yyyyrrrryyyyrrrr"/>
        <phase duration="42" state="rrrrGGggrrrrGGgg"/>
        <phase duration="3"  state="rrrryyyyrrrryyyy"/>
        <param key="linkSignalID:0" value="67271154_0 67271154_1 67271154_2 67271154_3"/>
        <param key="linkSignalID:1" value="67271154_0 67271154_1 67271154_2 67271154_3"/>
        <param key="linkSignalID:10" value="67271154_10 67271154_11 67271154_8 67271154_9"/>
        <param key="linkSignalID:11" value="67271154_10 67271154_11 67271154_8 67271154_9"/>
        <param key="linkSignalID:12" value="67271154_12 67271154_13 67271154_14 67271154_15"/>
        <param key="linkSignalID:13" value="67271154_12 67271154_13 67271154_14 67271154_15"/>
        <param key="linkSignalID:14" value="67271154_12 67271154_13 67271154_14 67271154_15"/>
        <param key="linkSignalID:15" value="67271154_12 67271154_13 67271154_14 67271154_15"/>
        <param key="linkSignalID:2" value="67271154_0 67271154_1 67271154_2 67271154_3"/>
        <param key="linkSignalID:3" value="67271154_0 67271154_1 67271154_2 67271154_3"/>
        <param key="linkSignalID:4" value="67271154_4 67271154_5 67271154_6 67271154_7"/>
        <param key="linkSignalID:5" value="67271154_4 67271154_5 67271154_6 67271154_7"/>
        <param key="linkSignalID:6" value="67271154_4 67271154_5 67271154_6 67271154_7"/>
        <param key="linkSignalID:7" value="67271154_4 67271154_5 67271154_6 67271154_7"/>
        <param key="linkSignalID:8" value="67271154_10 67271154_11 67271154_8 67271154_9"/>
        <param key="linkSignalID:9" value="67271154_10 67271154_11 67271154_8 67271154_9"/>
    </tlLogic>
    <tlLogic id="252" type="static" programID="0" offset="0">
        <phase duration="42" state="GGggrrrrGGggrrrr"/>
        <phase duration="3"  state="yyyyrrrryyyyrrrr"/>
        <phase duration="42" state="rrrrGGggrrrrGGgg"/>
        <phase duration="3"  state="rrrryyyyrrrryyyy"/>
        <param key="linkSignalID:0" value="67250313_0 67250313_1 67250313_2 67250313_3"/>
        <param key="linkSignalID:1" value="67250313_0 67250313_1 67250313_2 67250313_3"/>
        <param key="linkSignalID:10" value="67250313_10 67250313_11 67250313_8 67250313_9"/>
        <param key="linkSignalID:11" value="67250313_10 67250313_11 67250313_8 67250313_9"/>
        <param key="linkSignalID:12" value="67250313_12 67250313_13 67250313_14 67250313_15"/>
        <param key="linkSignalID:13" value="67250313_12 67250313_13 67250313_14 67250313_15"/>
        <param key="linkSignalID:14" value="67250313_12 67250313_13 67250313_14 67250313_15"/>
        <param key="linkSignalID:15" value="67250313_12 67250313_13 67250313_14 67250313_15"/>
        <param key="linkSignalID:2" value="67250313_0 67250313_1 67250313_2 67250313_3"/>
        <param key="linkSignalID:3" value="67250313_0 67250313_1 67250313_2 67250313_3"/>
        <param key="linkSignalID:4" value="67250313_4 67250313_5 67250313_6 67250313_7"/>
        <param key="linkSignalID:5" value="67250313_4 67250313_5 67250313_6 67250313_7"/>
        <param key="linkSignalID:6" value="67250313_4 67250313_5 67250313_6 67250313_7"/>
        <param key="linkSignalID:7" value="67250313_4 67250313_5 67250313_6 67250313_7"/>
        <param key="linkSignalID:8" value="67250313_10 67250313_11 67250313_8 67250313_9"/>
        <param key="linkSignalID:9" value="67250313_10 67250313_11 67250313_8 67250313_9"/>
    </tlLogic>
    <tlLogic id="26" type="static" programID="0" offset="0">
        <phase duration="42" state="GGgGggrrr"/>
        <phase duration="3"  state="yyyyyyrrr"/>
        <phase duration="42" state="GrrrrrGGg"/>
        <phase duration="3"  state="yrrrrryyy"/>
        <param key="linkSignalID:0" value="67307821_0 67307821_1 67307821_2"/>
        <param key="linkSignalID:1" value="67307821_0 67307821_1 67307821_2"/>
        <param key="linkSignalID:2" value="67307821_0 67307821_1 67307821_2"/>
        <param key="linkSignalID:3" value="67307821_3 67307821_4 67307821_5"/>
        <param key="linkSignalID:4" value="67307821_3 67307821_4 67307821_5"/>
        <param key="linkSignalID:5" value="67307821_3 67307821_4 67307821_5"/>
        <param key="linkSignalID:6" value="67307821_6 67307821_7 67307821_8"/>
        <param key="linkSignalID:7" value="67307821_6 67307821_7 67307821_8"/>
        <param key="linkSignalID:8" value="67307821_6 67307821_7 67307821_8"/>
    </tlLogic>
    <tlLogic id="30" type="static" programID="0" offset="0">
        <phase duration="27" state="GGggrrrGGGgrrr"/>
        <phase duration="3"  state="yyyyrrryyyyrrr"/>
        <phase duration="27" state="rrrrGGgGrrrrrr"/>
        <phase duration="3"  state="rrrryyyyrrrrrr"/>
        <phase duration="27" state="rrrrrrrrrrrGGG"/>
        <phase duration="3"  state="rrrrrrrrrrryyy"/>
        <param key="linkSignalID:0" value="67272289_0"/>
        <param key="linkSignalID:1" value="67272289_0"/>
        <param key="linkSignalID:10" value="67272289_7 67272289_8"/>
        <param key="linkSignalID:11" value="67272289_11 67272289_12"/>
        <param key="linkSignalID:12" value="67272289_11 67272289_12"/>
        <param key="linkSignalID:13" value="67272289_11 67272289_12"/>
        <param key="linkSignalID:2" value="67272289_0"/>
        <param key="linkSignalID:3" value="67272289_0"/>
        <param key="linkSignalID:4" value="67272289_4 67272289_5 67272289_6"/>
        <param key="linkSignalID:5" value="67272289_4 67272289_5 67272289_6"/>
        <param key="linkSignalID:6" value="67272289_4 67272289_5 67272289_6"/>
        <param key="linkSignalID:7" value="67272289_7 67272289_8"/>
        <param key="linkSignalID:8" value="67272289_7 67272289_8"/>
        <param key="linkSignalID:9" value="67272289_7 67272289_8"/>
    </tlLogic>
    <tlLogic id="330" type="static" programID="0" offset="0">
        <phase duration="42" state="rrrrGGggrrrrGGgg"/>
        <phase duration="3"  state="rrrryyyyrrrryyyy"/>
        <phase duration="42" state="GGggrrrrGGggrrrr"/>
        <phase duration="3"  state="yyyyrrrryyyyrrrr"/>
        <param key="linkSignalID:0" value="67220383_0 67220383_1 67220383_2 67220383_3"/>
        <param key="linkSignalID:1" value="67220383_0 67220383_1 67220383_2 67220383_3"/>
        <param key="linkSignalID:10" value="67220383_10 67220383_11 67220383_8 67220383_9"/>
        <param key="linkSignalID:11" value="67220383_10 67220383_11 67220383_8 67220383_9"/>
        <param key="linkSignalID:12" value="67220383_12 67220383_13 67220383_14 67220383_15"/>
        <param key="linkSignalID:13" value="67220383_12 67220383_13 67220383_14 67220383_15"/>
        <param key="linkSignalID:14" value="67220383_12 67220383_13 67220383_14 67220383_15"/>
        <param key="linkSignalID:15" value="67220383_12 67220383_13 67220383_14 67220383_15"/>
        <param key="linkSignalID:2" value="67220383_0 67220383_1 67220383_2 67220383_3"/>
        <param key="linkSignalID:3" value="67220383_0 67220383_1 67220383_2 67220383_3"/>
        <param key="linkSignalID:4" value="67220383_4 67220383_5 67220383_6 67220383_7"/>
        <param key="linkSignalID:5" value="67220383_4 67220383_5 67220383_6 67220383_7"/>
        <param key="linkSignalID:6" value="67220383_4 67220383_5 67220383_6 67220383_7"/>
        <param key="linkSignalID:7" value="67220383_4 67220383_5 67220383_6 67220383_7"/>
        <param key="linkSignalID:8" value="67220383_10 67220383_11 67220383_8 67220383_9"/>
        <param key="linkSignalID:9" value="67220383_10 67220383_11 67220383_8 67220383_9"/>
    </tlLogic>
    <tlLogic id="34" type="static" programID="0" offset="0">
        <phase duration="42" state="GGGrr"/>
        <phase duration="3"  state="yyyrr"/>
        <phase duration="42" state="rrrGG"/>
        <phase duration="3"  state="rrryy"/>
        <param key="linkSignalID:0" value="67273530_0 67273530_1"/>
        <param key="linkSignalID:1" value="67273530_0 67273530_1"/>
        <param key="linkSignalID:2" value="67273530_0 67273530_1"/>
        <param key="linkSignalID:3" value="67273530_3"/>
        <param key="linkSignalID:4" value="67273530_3"/>
    </tlLogic>
    <tlLogic id="342" type="static" programID="0" offset="0">
        <phase duration="42" state="GGgGggrrr"/>
        <phase duration="3"  state="yyyyyyrrr"/>
        <phase duration="42" state="GrrrrrGGg"/>
        <phase duration="3"  state="yrrrrryyy"/>
        <param key="linkSignalID:0" value="67282148_0 67282148_1 67282148_2"/>
        <param key="linkSignalID:1" value="67282148_0 67282148_1 67282148_2"/>
        <param key="linkSignalID:2" value="67282148_0 67282148_1 67282148_2"/>
        <param key="linkSignalID:3" value="67282148_3 67282148_4 67282148_5"/>
        <param key="linkSignalID:4" value="67282148_3 67282148_4 67282148_5"/>
        <param key="linkSignalID:5" value="67282148_3 67282148_4 67282148_5"/>
        <param key="linkSignalID:6" value="67282148_6 67282148_7 67282148_8"/>
        <param key="linkSignalID:7" value="67282148_6 67282148_7 67282148_8"/>
        <param key="linkSignalID:8" value="67282148_6 67282148_7 67282148_8"/>
    </tlLogic>
    <tlLogic id="346" type="static" programID="0" offset="0">
        <phase duration="42" state="GgrrGg"/>
        <phase duration="3"  state="yyrryy"/>
        <phase duration="42" state="rrGGrr"/>
        <phase duration="3"  state="rryyrr"/>
        <param key="linkSignalID:0" value="67275630_0 67275630_1"/>
        <param key="linkSignalID:1" value="67275630_0 67275630_1"/>
        <param key="linkSignalID:2" value="67275630_2 67275630_3"/>
        <param key="linkSignalID:3" value="67275630_2 67275630_3"/>
        <param key="linkSignalID:4" value="67275630_4 67275630_5"/>
        <param key="linkSignalID:5" value="67275630_4 67275630_5"/>
    </tlLogic>
    <tlLogic id="347" type="static" programID="0" offset="0">
        <phase duration="42" state="GggrrrGGg"/>
        <phase duration="3"  state="yyyrrryyy"/>
        <phase duration="42" state="rrrGGgGrr"/>
        <phase duration="3"  state="rrryyyyrr"/>
        <param key="linkSignalID:0" value="67282139_0 67282139_1 67282139_2"/>
        <param key="linkSignalID:1" value="67282139_0 67282139_1 67282139_2"/>
        <param key="linkSignalID:2" value="67282139_0 67282139_1 67282139_2"/>
        <param key="linkSignalID:3" value="67282139_3 67282139_4 67282139_5"/>
        <param key="linkSignalID:4" value="67282139_3 67282139_4 67282139_5"/>
        <param key="linkSignalID:5" value="67282139_3 67282139_4 67282139_5"/>
        <param key="linkSignalID:6" value="67282139_6 67282139_7 67282139_8"/>
        <param key="linkSignalID:7" value="67282139_6 67282139_7 67282139_8"/>
        <param key="linkSignalID:8" value="67282139_6 67282139_7 67282139_8"/>
    </tlLogic>
    <tlLogic id="38" type="static" programID="0" offset="0">
        <phase duration="42" state="GGGrr"/>
        <phase duration="3"  state="yyyrr"/>
        <phase duration="42" state="rrrGG"/>
        <phase duration="3"  state="rrryy"/>
        <param key="linkSignalID:0" value="67270806_0"/>
        <param key="linkSignalID:1" value="67270806_0"/>
        <param key="linkSignalID:2" value="67270806_0"/>
        <param key="linkSignalID:3" value="67270806_3 67270806_4"/>
        <param key="linkSignalID:4" value="67270806_3 67270806_4"/>
    </tlLogic>
    <tlLogic id="398" type="static" programID="0" offset="0">
        <phase duration="42" state="rrrrGGggrrrrGGgg"/>
        <phase duration="3"  state="rrrryyyyrrrryyyy"/>
        <phase duration="42" state="GGggrrrrGGggrrrr"/>
        <phase duration="3"  state="yyyyrrrryyyyrrrr"/>
        <param key="linkSignalID:0" value="67271114_0 67271114_1 67271114_2 67271114_3"/>
        <param key="linkSignalID:1" value="67271114_0 67271114_1 67271114_2 67271114_3"/>
        <param key="linkSignalID:10" value="67271114_10 67271114_11 67271114_8 67271114_9"/>
        <param key="linkSignalID:11" value="67271114_10 67271114_11 67271114_8 67271114_9"/>
        <param key="linkSignalID:12" value="67271114_12 67271114_13 67271114_14 67271114_15"/>
        <param key="linkSignalID:13" value="67271114_12 67271114_13 67271114_14 67271114_15"/>
        <param key="linkSignalID:14" value="67271114_12 67271114_13 67271114_14 67271114_15"/>
        <param key="linkSignalID:15" value="67271114_12 67271114_13 67271114_14 67271114_15"/>
        <param key="linkSignalID:2" value="67271114_0 67271114_1 67271114_2 67271114_3"/>
        <param key="linkSignalID:3" value="67271114_0 67271114_1 67271114_2 67271114_3"/>
        <param key="linkSignalID:4" value="67271114_4 67271114_5 67271114_6 67271114_7"/>
        <param key="linkSignalID:5" value="67271114_4 67271114_5 67271114_6 67271114_7"/>
        <param key="linkSignalID:6" value="67271114_4 67271114_5 67271114_6 67271114_7"/>
        <param key="linkSignalID:7" value="67271114_4 67271114_5 67271114_6 67271114_7"/>
        <param key="linkSignalID:8" value="67271114_10 67271114_11 67271114_8 67271114_9"/>
        <param key="linkSignalID:9" value="67271114_10 67271114_11 67271114_8 67271114_9"/>
    </tlLogic>
    <tlLogic id="42" type="static" programID="0" offset="0">
        <phase duration="42" state="GGggrrrrGGggrrrr"/>
        <phase duration="3"  state="yyyyrrrryyyyrrrr"/>
        <phase duration="42" state="rrrrGGggrrrrGGgg"/>
        <phase duration="3"  state="rrrryyyyrrrryyyy"/>
        <param key="linkSignalID:0" value="67248977_0 67248977_1 67248977_2 67248977_3"/>
        <param key="linkSignalID:1" value="67248977_0 67248977_1 67248977_2 67248977_3"/>
        <param key="linkSignalID:10" value="67248977_10 67248977_11 67248977_8 67248977_9"/>
        <param key="linkSignalID:11" value="67248977_10 67248977_11 67248977_8 67248977_9"/>
        <param key="linkSignalID:12" value="67248977_12 67248977_13 67248977_14 67248977_15"/>
        <param key="linkSignalID:13" value="67248977_12 67248977_13 67248977_14 67248977_15"/>
        <param key="linkSignalID:14" value="67248977_12 67248977_13 67248977_14 67248977_15"/>
        <param key="linkSignalID:15" value="67248977_12 67248977_13 67248977_14 67248977_15"/>
        <param key="linkSignalID:2" value="67248977_0 67248977_1 67248977_2 67248977_3"/>
        <param key="linkSignalID:3" value="67248977_0 67248977_1 67248977_2 67248977_3"/>
        <param key="linkSignalID:4" value="67248977_4 67248977_5 67248977_6 67248977_7"/>
        <param key="linkSignalID:5" value="67248977_4 67248977_5 67248977_6 67248977_7"/>
        <param key="linkSignalID:6" value="67248977_4 67248977_5 67248977_6 67248977_7"/>
        <param key="linkSignalID:7" value="67248977_4 67248977_5 67248977_6 67248977_7"/>
        <param key="linkSignalID:8" value="67248977_10 67248977_11 67248977_8 67248977_9"/>
        <param key="linkSignalID:9" value="67248977_10 67248977_11 67248977_8 67248977_9"/>
    </tlLogic>
    <tlLogic id="420" type="static" programID="0" offset="0">
        <phase duration="42" state="GggrrrGGg"/>
        <phase duration="3"  state="yyyrrryyy"/>
        <phase duration="42" state="rrrGGgGrr"/>
        <phase duration="3"  state="rrryyyyrr"/>
        <param key="linkSignalID:0" value="67271112_0 67271112_1 67271112_2"/>
        <param key="linkSignalID:1" value="67271112_0 67271112_1 67271112_2"/>
        <param key="linkSignalID:2" value="67271112_0 67271112_1 67271112_2"/>
        <param key="linkSignalID:3" value="67271112_3 67271112_4 67271112_5"/>
        <param key="linkSignalID:4" value="67271112_3 67271112_4 67271112_5"/>
        <param key="linkSignalID:5" value="67271112_3 67271112_4 67271112_5"/>
        <param key="linkSignalID:6" value="67271112_6 67271112_7 67271112_8"/>
        <param key="linkSignalID:7" value="67271112_6 67271112_7 67271112_8"/>
        <param key="linkSignalID:8" value="67271112_6 67271112_7 67271112_8"/>
    </tlLogic>
    <tlLogic id="45" type="static" programID="0" offset="0">
        <phase duration="42" state="GggrrrGGg"/>
        <phase duration="3"  state="yyyrrryyy"/>
        <phase duration="42" state="rrrGGgGrr"/>
        <phase duration="3"  state="rrryyyyrr"/>
        <param key="linkSignalID:0" value="67249078_0 67249078_1 67249078_2"/>
        <param key="linkSignalID:1" value="67249078_0 67249078_1 67249078_2"/>
        <param key="linkSignalID:2" value="67249078_0 67249078_1 67249078_2"/>
        <param key="linkSignalID:3" value="67249078_3 67249078_4 67249078_5"/>
        <param key="linkSignalID:4" value="67249078_3 67249078_4 67249078_5"/>
        <param key="linkSignalID:5" value="67249078_3 67249078_4 67249078_5"/>
        <param key="linkSignalID:6" value="67249078_6 67249078_7 67249078_8"/>
        <param key="linkSignalID:7" value="67249078_6 67249078_7 67249078_8"/>
        <param key="linkSignalID:8" value="67249078_6 67249078_7 67249078_8"/>
    </tlLogic>
    <tlLogic id="5" type="static" programID="0" offset="0">
        <phase duration="42" state="GGGrrr"/>
        <phase duration="3"  state="yyyrrr"/>
        <phase duration="42" state="rrrGGG"/>
        <phase duration="3"  state="rrryyy"/>
        <param key="linkSignalID:0" value="67284469_0 67284469_1"/>
        <param key="linkSignalID:1" value="67284469_0 67284469_1"/>
        <param key="linkSignalID:2" value="67284469_0 67284469_1"/>
        <param key="linkSignalID:3" value="67284469_3"/>
        <param key="linkSignalID:4" value="67284469_3"/>
        <param key="linkSignalID:5" value="67284469_3"/>
    </tlLogic>
    <tlLogic id="529" type="static" programID="0" offset="0">
        <phase duration="42" state="GGggrrrrGGggrrrr"/>
        <phase duration="3"  state="yyyyrrrryyyyrrrr"/>
        <phase duration="42" state="rrrrGGggrrrrGGgg"/>
        <phase duration="3"  state="rrrryyyyrrrryyyy"/>
        <param key="linkSignalID:0" value="67290790_0 67290790_1 67290790_2 67290790_3"/>
        <param key="linkSignalID:1" value="67290790_0 67290790_1 67290790_2 67290790_3"/>
        <param key="linkSignalID:10" value="67290790_10 67290790_11 67290790_8 67290790_9"/>
        <param key="linkSignalID:11" value="67290790_10 67290790_11 67290790_8 67290790_9"/>
        <param key="linkSignalID:12" value="67290790_12 67290790_13 67290790_14 67290790_15"/>
        <param key="linkSignalID:13" value="67290790_12 67290790_13 67290790_14 67290790_15"/>
        <param key="linkSignalID:14" value="67290790_12 67290790_13 67290790_14 67290790_15"/>
        <param key="linkSignalID:15" value="67290790_12 67290790_13 67290790_14 67290790_15"/>
        <param key="linkSignalID:2" value="67290790_0 67290790_1 67290790_2 67290790_3"/>
        <param key="linkSignalID:3" value="67290790_0 67290790_1 67290790_2 67290790_3"/>
        <param key="linkSignalID:4" value="67290790_4 67290790_5 67290790_6 67290790_7"/>
        <param key="linkSignalID:5" value="67290790_4 67290790_5 67290790_6 67290790_7"/>
        <param key="linkSignalID:6" value="67290790_4 67290790_5 67290790_6 67290790_7"/>
        <param key="linkSignalID:7" value="67290790_4 67290790_5 67290790_6 67290790_7"/>
        <param key="linkSignalID:8" value="67290790_10 67290790_11 67290790_8 67290790_9"/>
        <param key="linkSignalID:9" value="67290790_10 67290790_11 67290790_8 67290790_9"/>
    </tlLogic>
    <tlLogic id="590" type="static" programID="0" offset="0">
        <phase duration="27" state="GGgggrrrrrrrrrrGGGGggrrrrr"/>