<?xml version="1.0" encoding="UTF-8"?>

<!-- generated on 2025-08-13 21:40:27 by Eclipse SUMO netconvert Version 1.18.0
<configuration xmlns:xsi="http://www.w3.org/2001/XMLSchema-instance" xsi:noNamespaceSchemaLocation="http://sumo.dlr.de/xsd/netconvertConfiguration.xsd">

    <input>
        <opendrive-files value="uga.xodr"/>
    </input>

    <output>
        <output-file value="tmp/map.net.xml"/>
        <plain-output-prefix value="tmp/"/>
    </output>

    <junctions>
        <no-turnarounds.except-deadend value="true"/>
    </junctions>

</configuration>
-->

<net version="1.16" junctionCornerDetail="5" rectangularLaneCut="true" limitTurnSpeed="5.50" xmlns:xsi="http://www.w3.org/2001/XMLSchema-instance" xsi:noNamespaceSchemaLocation="http://sumo.dlr.de/xsd/net_file.xsd">

    <location netOffset="-279962.57,-3756336.62" convBoundary="0.00,0.00,2338.29,3900.30" origBoundary="0.000000,0.000000,0.000000,0.000000" projParameter="+proj=utm +zone=17 +ellps=WGS84 +datum=WGS84 +units=m +no_defs

        "/>

    <type id="driving" priority="1" speed="13.89" disallow="pedestrian tram rail_urban rail rail_electric rail_fast ship" width="3.65"/>

    <edge id=":1_0" function="internal">
        <lane id=":1_0_0" index="0" disallow="pedestrian tram rail_urban rail rail_electric rail_fast ship" speed="16.86" length="14.39" width="3.20" shape="1741.10,876.58 1736.81,875.38 1733.42,875.28 1730.34,875.79 1726.98,876.42"/>
    </edge>
    <edge id=":1_1" function="internal">
        <lane id=":1_1_0" index="0" disallow="pedestrian tram rail_urban rail rail_electric rail_fast ship" speed="17.99" length="14.52" width="3.20" shape="1741.10,876.58 1727.56,871.33"/>
        <lane id=":1_1_1" index="1" disallow="pedestrian tram rail_urban rail rail_electric rail_fast ship" speed="17.99" length="14.52" width="3.20" shape="1742.25,873.60 1728.71,868.35"/>
    </edge>
    <edge id=":10_0" function="internal">
        <lane id=":10_0_0" index="0" disallow="pedestrian tram rail_urban rail rail_electric rail_fast ship" speed="3.65" length="4.67" width="3.20" shape="379.56,1602.12 378.32,1601.38 377.87,1600.60 378.23,1599.78 379.39,1598.92"/>
    </edge>
    <edge id=":100_0" function="internal">
        <lane id=":100_0_0" index="0" disallow="pedestrian tram rail_urban rail rail_electric rail_fast ship" speed="6.40" length="9.68" width="3.20" shape="1898.56,868.43 1897.13,866.26 1895.32,865.22 1893.14,865.30 1890.59,866.50"/>
    </edge>
    <edge id=":100_1" function="internal">
        <lane id=":100_1_0" index="0" disallow="pedestrian tram rail_urban rail rail_electric rail_fast ship" speed="3.65" length="4.67" width="3.20" shape="1898.56,868.43 1898.79,867.01 1899.35,866.31 1900.24,866.35 1901.47,867.11"/>
    </edge>
    <edge id=":100_2" function="internal">
        <lane id=":100_2_0" index="0" disallow="pedestrian tram rail_urban rail rail_electric rail_fast ship" speed="6.98" length="9.36" width="3.20" shape="1902.70,858.69 1901.15,860.16 1900.43,862.06 1900.54,864.37 1901.47,867.11"/>
    </edge>
    <edge id=":100_3" function="internal">
        <lane id=":100_3_0" index="0" disallow="pedestrian tram rail_urban rail rail_electric rail_fast ship" speed="17.99" length="14.40" width="3.20" shape="1902.70,858.69 1890.59,866.50"/>
        <lane id=":100_3_1" index="1" disallow="pedestrian tram rail_urban rail rail_electric rail_fast ship" speed="17.99" length="14.40" width="3.20" shape="1900.96,856.00 1888.86,863.81"/>
    </edge>
    <edge id=":101_0" function="internal">
        <lane id=":101_0_0" index="0" disallow="pedestrian tram rail_urban rail rail_electric rail_fast ship" speed="17.99" length="14.04" width="3.20" shape="1507.74,805.52 1503.64,805.78 1500.83,806.03 1498.04,806.43 1493.98,807.12"/>
        <lane id=":101_0_1" index="1" disallow="pedestrian tram rail_urban rail rail_electric rail_fast ship" speed="17.99" length="14.04" width="3.20" shape="1507.56,802.33 1503.34,802.59 1500.46,802.85 1497.60,803.26 1493.44,803.97"/>
    </edge>
    <edge id=":101_2" function="internal">
        <lane id=":101_2_0" index="0" disallow="pedestrian tram rail_urban rail rail_electric rail_fast ship" speed="7.48" length="11.43" width="3.20" shape="1507.56,802.33 1503.72,802.24 1500.88,801.47 1499.02,800.03 1498.16,797.89"/>
    </edge>
    <edge id=":101_3" function="internal">
        <lane id=":101_3_0" index="0" disallow="pedestrian tram rail_urban rail rail_electric rail_fast ship" speed="7.29" length="11.41" width="3.20" shape="1501.32,797.42 1501.11,799.73 1499.73,801.59 1497.17,803.00 1493.44,803.97"/>
    </edge>
    <edge id=":101_4" function="internal">
        <lane id=":101_4_0" index="0" disallow="pedestrian tram rail_urban rail rail_electric rail_fast ship" speed="3.65" length="4.67" width="3.20" shape="1501.32,797.42 1500.71,798.73 1499.98,799.24 1499.13,798.96 1498.16,797.89"/>
    </edge>
    <edge id=":102_0" function="internal">
        <lane id=":102_0_0" index="0" disallow="pedestrian tram rail_urban rail rail_electric rail_fast ship" speed="7.01" length="9.30" width="3.20" shape="1356.60,881.13 1354.71,882.91 1353.69,884.86 1353.55,886.96 1354.29,889.23"/>
    </edge>
    <edge id=":102_1" function="internal">
        <lane id=":102_1_0" index="0" disallow="pedestrian tram rail_urban rail rail_electric rail_fast ship" speed="17.99" length="11.03" width="3.20" shape="1356.60,881.13 1347.64,887.58"/>
        <lane id=":102_1_1" index="1" disallow="pedestrian tram rail_urban rail rail_electric rail_fast ship" speed="17.99" length="11.03" width="3.20" shape="1354.72,878.54 1345.78,884.97"/>
    </edge>
    <edge id=":102_3" function="internal">
        <lane id=":102_3_0" index="0" disallow="pedestrian tram rail_urban rail rail_electric rail_fast ship" speed="31.51" length="13.28" width="3.20" shape="1348.29,877.39 1354.29,889.23"/>
    </edge>
    <edge id=":102_4" function="internal">
        <lane id=":102_4_0" index="0" disallow="pedestrian tram rail_urban rail rail_electric rail_fast ship" speed="6.79" length="8.83" width="3.20" shape="1348.29,877.39 1348.95,879.46 1348.75,881.42 1347.69,883.25 1345.78,884.97"/>
    </edge>
    <edge id=":103_0" function="internal">
        <lane id=":103_0_0" index="0" disallow="pedestrian tram rail_urban rail rail_electric rail_fast ship" speed="13.49" length="4.85" width="3.20" shape="961.69,1139.58 962.01,1140.98 962.27,1141.94 962.66,1142.84 963.40,1144.07"/>
    </edge>
    <edge id=":103_1" function="internal">
        <lane id=":103_1_0" index="0" disallow="pedestrian tram rail_urban rail rail_electric rail_fast ship" speed="13.49" length="9.69" width="3.20" shape="955.35,1137.75 956.79,1140.23 957.90,1141.85 959.08,1143.43 960.71,1145.81"/>
    </edge>
    <edge id=":104_0" function="internal">
        <lane id=":104_0_0" index="0" disallow="pedestrian tram rail_urban rail rail_electric rail_fast ship" speed="6.72" length="9.47" width="3.20" shape="936.79,1129.40 935.38,1127.19 933.61,1125.93 931.50,1125.63 929.04,1126.27"/>
        <lane id=":104_0_1" index="1" disallow="pedestrian tram rail_urban rail rail_electric rail_fast ship" speed="8.17" length="14.60" width="3.20" shape="939.72,1128.12 937.58,1124.71 934.87,1122.78 931.61,1122.32 927.78,1123.33"/>
    </edge>
    <edge id=":104_2" function="internal">
        <lane id=":104_2_0" index="0" disallow="pedestrian tram rail_urban rail rail_electric rail_fast ship" speed="13.49" length="13.66" width="3.20" shape="939.72,1128.12 937.61,1124.66 935.49,1122.70 933.35,1120.76 931.15,1117.34"/>
        <lane id=":104_2_1" index="1" disallow="pedestrian tram rail_urban rail rail_electric rail_fast ship" speed="13.49" length="13.66" width="3.20" shape="939.72,1128.12 934.04,1115.96"/>
    </edge>
    <edge id=":104_4" function="internal">
        <lane id=":104_4_0" index="0" disallow="pedestrian tram rail_urban rail rail_electric rail_fast ship" speed="17.99" length="12.19" width="3.20" shape="940.34,1121.76 929.04,1126.27"/>
        <lane id=":104_4_1" index="1" disallow="pedestrian tram rail_urban rail rail_electric rail_fast ship" speed="17.99" length="12.19" width="3.20" shape="939.11,1118.81 927.78,1123.33"/>
    </edge>
    <edge id=":104_6" function="internal">
        <lane id=":104_6_0" index="0" disallow="pedestrian tram rail_urban rail rail_electric rail_fast ship" speed="5.74" length="1.63" width="3.20" shape="939.11,1118.81 937.63,1119.11 937.52,1119.08"/>
    </edge>
    <edge id=":104_7" function="internal">
        <lane id=":104_7_0" index="0" disallow="pedestrian tram rail_urban rail rail_electric rail_fast ship" speed="5.74" length="4.90" width="3.20" shape="937.52,1119.08 936.30,1118.74 935.10,1117.69 934.04,1115.96"/>
    </edge>
    <edge id=":105_0" function="internal">
        <lane id=":105_0_0" index="0" disallow="pedestrian tram rail_urban rail rail_electric rail_fast ship" speed="7.00" length="9.34" width="3.20" shape="1114.21,1050.19 1112.57,1048.38 1110.65,1047.42 1108.47,1047.32 1106.02,1048.09"/>
    </edge>
    <edge id=":105_1" function="internal">
        <lane id=":105_1_0" index="0" disallow="pedestrian tram rail_urban rail rail_electric rail_fast ship" speed="31.51" length="13.88" width="3.20" shape="1114.21,1050.19 1106.63,1038.56"/>
    </edge>
    <edge id=":105_2" function="internal">
        <lane id=":105_2_0" index="0" disallow="pedestrian tram rail_urban rail rail_electric rail_fast ship" speed="17.99" length="10.83" width="3.20" shape="1115.90,1043.47 1106.02,1048.09"/>
        <lane id=":105_2_1" index="1" disallow="pedestrian tram rail_urban rail rail_electric rail_fast ship" speed="17.99" length="10.83" width="3.20" shape="1114.41,1040.64 1104.68,1045.19"/>
    </edge>
    <edge id=":105_4" function="internal">
        <lane id=":105_4_0" index="0" disallow="pedestrian tram rail_urban rail rail_electric rail_fast ship" speed="6.69" length="9.03" width="3.20" shape="1114.41,1040.64 1112.10,1041.46 1110.04,1041.39 1108.22,1040.42 1106.63,1038.56"/>
    </edge>
    <edge id=":106_0" function="internal">
        <lane id=":106_0_0" index="0" disallow="pedestrian tram rail_urban rail rail_electric rail_fast ship" speed="31.51" length="3.20" width="3.20" shape="1422.53,1462.61 1422.73,1463.54 1422.88,1464.17 1423.07,1464.79 1423.37,1465.69"/>
    </edge>
    <edge id=":106_1" function="internal">
        <lane id=":106_1_0" index="0" disallow="pedestrian tram rail_urban rail rail_electric rail_fast ship" speed="31.51" length="3.17" width="3.20" shape="1419.32,1463.74 1420.35,1466.73"/>
        <lane id=":106_1_1" index="1" disallow="pedestrian tram rail_urban rail rail_electric rail_fast ship" speed="31.51" length="3.17" width="3.20" shape="1416.29,1464.77 1417.32,1467.77"/>
    </edge>
    <edge id=":107_0" function="internal">
        <lane id=":107_0_0" index="0" disallow="pedestrian tram rail_urban rail rail_electric rail_fast ship" speed="31.51" length="15.30" width="3.20" shape="1106.56,1038.45 1104.95,1035.43 1103.68,1032.44 1102.14,1029.04 1099.70,1024.79"/>
    </edge>
    <edge id=":107_1" function="internal">
        <lane id=":107_1_0" index="0" disallow="pedestrian tram rail_urban rail rail_electric rail_fast ship" speed="6.54" length="9.71" width="3.20" shape="1106.56,1038.45 1105.65,1036.21 1105.85,1034.16 1107.17,1032.31 1109.61,1030.65"/>
    </edge>
    <edge id=":107_2" function="internal">
        <lane id=":107_2_0" index="0" disallow="pedestrian tram rail_urban rail rail_electric rail_fast ship" speed="6.21" length="9.02" width="3.20" shape="1094.88,1033.87 1097.00,1032.51 1098.06,1030.84 1098.07,1028.85 1097.02,1026.54"/>
        <lane id=":107_2_1" index="1" disallow="pedestrian tram rail_urban rail rail_electric rail_fast ship" speed="7.76" length="14.77" width="3.20" shape="1096.21,1036.79 1099.68,1034.56 1101.42,1031.81 1101.43,1028.56 1099.70,1024.79"/>
    </edge>
    <edge id=":107_4" function="internal">
        <lane id=":107_4_0" index="0" disallow="pedestrian tram rail_urban rail rail_electric rail_fast ship" speed="17.99" length="14.88" width="3.20" shape="1096.21,1036.79 1100.01,1034.56 1102.24,1032.43 1104.43,1030.23 1108.14,1027.81"/>
        <lane id=":107_4_1" index="1" disallow="pedestrian tram rail_urban rail rail_electric rail_fast ship" speed="17.99" length="14.88" width="3.20" shape="1096.21,1036.79 1109.61,1030.65"/>
    </edge>
    <edge id=":108_0" function="internal">
        <lane id=":108_0_0" index="0" disallow="pedestrian tram rail_urban rail rail_electric rail_fast ship" speed="3.65" length="4.67" width="3.20" shape="893.58,3806.71 892.53,3807.70 891.66,3807.91 890.97,3807.34 890.46,3805.99"/>
    </edge>
    <edge id=":109_0" function="internal">
        <lane id=":109_0_0" index="0" disallow="pedestrian tram rail_urban rail rail_electric rail_fast ship" speed="6.60" length="9.00" width="3.20" shape="903.04,3790.25 900.59,3790.15 898.66,3790.84 897.25,3792.32 896.37,3794.60"/>
    </edge>
    <edge id=":109_1" function="internal">
        <lane id=":109_1_0" index="0" disallow="pedestrian tram rail_urban rail rail_electric rail_fast ship" speed="9.10" length="13.40" width="3.20" shape="903.04,3790.25 899.76,3789.12 896.97,3787.47 894.17,3785.85 890.87,3784.83"/>
    </edge>
    <edge id=":109_2" function="internal">
        <lane id=":109_2_0" index="0" disallow="pedestrian tram rail_urban rail rail_electric rail_fast ship" speed="3.65" length="1.44" width="3.20" shape="903.04,3790.25 902.01,3789.25"/>
    </edge>
    <edge id=":109_9" function="internal">
        <lane id=":109_9_0" index="0" disallow="pedestrian tram rail_urban rail rail_electric rail_fast ship" speed="3.65" length="3.23" width="3.20" shape="902.01,3789.25 901.76,3788.39 902.30,3787.67 903.62,3787.11"/>
    </edge>
    <edge id=":109_3" function="internal">
        <lane id=":109_3_0" index="0" disallow="pedestrian tram rail_urban rail rail_electric rail_fast ship" speed="9.10" length="13.36" width="3.20" shape="891.26,3782.15 894.56,3783.28 897.42,3784.71 900.30,3786.11 903.62,3787.11"/>
    </edge>
    <edge id=":109_4" function="internal">
        <lane id=":109_4_0" index="0" disallow="pedestrian tram rail_urban rail rail_electric rail_fast ship" speed="8.27" length="1.46" width="3.20" shape="891.26,3782.15 892.58,3782.75"/>
    </edge>
    <edge id=":109_5" function="internal">
        <lane id=":109_5_0" index="0" disallow="pedestrian tram rail_urban rail rail_electric rail_fast ship" speed="3.49" length="3.02" width="3.20" shape="891.26,3782.15 892.17,3782.97 892.41,3783.69 891.98,3784.31 891.72,3784.43"/>
    </edge>
    <edge id=":109_10" function="internal">
        <lane id=":109_10_0" index="0" disallow="pedestrian tram rail_urban rail rail_electric rail_fast ship" speed="8.27" length="13.76" width="3.20" shape="892.58,3782.75 894.42,3783.59 896.33,3786.15 896.98,3789.82 896.37,3794.60"/>
    </edge>
    <edge id=":109_11" function="internal">
        <lane id=":109_11_0" index="0" disallow="pedestrian tram rail_urban rail rail_electric rail_fast ship" speed="3.49" length="0.95" width="3.20" shape="891.72,3784.43 890.87,3784.83"/>
    </edge>
    <edge id=":109_6" function="internal">
        <lane id=":109_6_0" index="0" disallow="pedestrian tram rail_urban rail rail_electric rail_fast ship" speed="6.77" length="10.51" width="3.20" shape="893.25,3793.88 893.83,3790.15 893.63,3787.40 892.64,3785.63 890.87,3784.83"/>
    </edge>
    <edge id=":109_7" function="internal">
        <lane id=":109_7_0" index="0" disallow="pedestrian tram rail_urban rail rail_electric rail_fast ship" speed="8.08" length="14.00" width="3.20" shape="893.25,3793.88 894.62,3790.33 896.81,3788.02 899.81,3786.94 903.62,3787.11"/>
    </edge>
    <edge id=":109_8" function="internal">
        <lane id=":109_8_0" index="0" disallow="pedestrian tram rail_urban rail rail_electric rail_fast ship" speed="3.65" length="4.67" width="3.20" shape="893.25,3793.88 894.30,3792.89 895.17,3792.68 895.86,3793.25 896.37,3794.60"/>
    </edge>
    <edge id=":11_0" function="internal">
        <lane id=":11_0_0" index="0" disallow="pedestrian tram rail_urban rail rail_electric rail_fast ship" speed="15.74" length="14.41" width="3.20" shape="409.78,1592.08 409.45,1606.48"/>
    </edge>
    <edge id=":11_1" function="internal">
        <lane id=":11_1_0" index="0" disallow="pedestrian tram rail_urban rail rail_electric rail_fast ship" speed="8.26" length="3.94" width="3.20" shape="409.78,1592.08 409.13,1595.80 409.05,1595.94"/>
    </edge>
    <edge id=":11_2" function="internal">
        <lane id=":11_2_0" index="0" disallow="pedestrian tram rail_urban rail rail_electric rail_fast ship" speed="3.65" length="1.44" width="3.20" shape="409.78,1592.08 408.95,1593.26"/>
    </edge>
    <edge id=":11_9" function="internal">
        <lane id=":11_9_0" index="0" disallow="pedestrian tram rail_urban rail rail_electric rail_fast ship" speed="8.26" length="10.37" width="3.20" shape="409.05,1595.94 407.40,1598.53 404.57,1600.26 400.66,1601.00"/>
    </edge>
    <edge id=":11_10" function="internal">
        <lane id=":11_10_0" index="0" disallow="pedestrian tram rail_urban rail rail_electric rail_fast ship" speed="3.65" length="3.23" width="3.20" shape="408.95,1593.26 408.14,1593.64 407.35,1593.22 406.58,1592.00"/>
    </edge>
    <edge id=":11_3" function="internal">
        <lane id=":11_3_0" index="0" disallow="pedestrian tram rail_urban rail rail_electric rail_fast ship" speed="6.82" length="9.43" width="3.20" shape="400.49,1597.80 403.11,1597.32 404.99,1596.19 406.15,1594.42 406.58,1592.00"/>
    </edge>
    <edge id=":11_4" function="internal">
        <lane id=":11_4_0" index="0" disallow="pedestrian tram rail_urban rail rail_electric rail_fast ship" speed="7.87" length="14.48" width="3.20" shape="400.49,1597.80 404.49,1598.16 407.31,1599.73 408.97,1602.50 409.45,1606.48"/>
    </edge>
    <edge id=":11_5" function="internal">
        <lane id=":11_5_0" index="0" disallow="pedestrian tram rail_urban rail rail_electric rail_fast ship" speed="3.65" length="4.67" width="3.20" shape="400.49,1597.80 401.73,1598.53 402.17,1599.31 401.82,1600.13 400.66,1601.00"/>
    </edge>
    <edge id=":11_6" function="internal">
        <lane id=":11_6_0" index="0" disallow="pedestrian tram rail_urban rail rail_electric rail_fast ship" speed="6.35" length="9.04" width="3.20" shape="406.25,1606.41 405.95,1603.93 404.92,1602.20 403.15,1601.22 400.66,1601.00"/>
    </edge>
    <edge id=":11_7" function="internal">
        <lane id=":11_7_0" index="0" disallow="pedestrian tram rail_urban rail rail_electric rail_fast ship" speed="15.74" length="14.42" width="3.20" shape="406.25,1606.41 406.58,1592.00"/>
    </edge>
    <edge id=":11_8" function="internal">
        <lane id=":11_8_0" index="0" disallow="pedestrian tram rail_urban rail rail_electric rail_fast ship" speed="3.65" length="1.44" width="3.20" shape="406.25,1606.41 407.08,1605.23"/>
    </edge>
    <edge id=":11_11" function="internal">
        <lane id=":11_11_0" index="0" disallow="pedestrian tram rail_urban rail rail_electric rail_fast ship" speed="3.65" length="3.23" width="3.20" shape="407.08,1605.23 407.89,1604.85 408.68,1605.27 409.45,1606.48"/>
    </edge>
    <edge id=":110_0" function="internal">
        <lane id=":110_0_0" index="0" disallow="pedestrian tram rail_urban rail rail_electric rail_fast ship" speed="3.65" length="4.67" width="3.20" shape="894.49,3888.76 893.49,3889.80 892.63,3890.05 891.92,3889.51 891.34,3888.19"/>
    </edge>
    <edge id=":111_0" function="internal">
        <lane id=":111_0_0" index="0" disallow="pedestrian tram rail_urban rail rail_electric rail_fast ship" speed="13.49" length="14.33" width="3.20" shape="900.48,3857.71 897.63,3871.75"/>
    </edge>
    <edge id=":111_1" function="internal">
        <lane id=":111_1_0" index="0" disallow="pedestrian tram rail_urban rail rail_electric rail_fast ship" speed="7.97" length="4.03" width="3.20" shape="900.48,3857.71 899.14,3861.38 899.06,3861.47"/>
    </edge>
    <edge id=":111_2" function="internal">
        <lane id=":111_2_0" index="0" disallow="pedestrian tram rail_urban rail rail_electric rail_fast ship" speed="3.65" length="1.44" width="3.20" shape="900.48,3857.71 899.45,3858.71"/>
    </edge>
    <edge id=":111_9" function="internal">
        <lane id=":111_9_0" index="0" disallow="pedestrian tram rail_urban rail rail_electric rail_fast ship" speed="7.97" length="10.23" width="3.20" shape="899.06,3861.47 896.95,3863.73 893.90,3864.74 890.00,3864.43"/>
    </edge>
    <edge id=":111_10" function="internal">
        <lane id=":111_10_0" index="0" disallow="pedestrian tram rail_urban rail rail_electric rail_fast ship" speed="3.65" length="3.23" width="3.20" shape="899.45,3858.71 898.59,3858.94 897.89,3858.39 897.35,3857.05"/>
    </edge>
    <edge id=":111_3" function="internal">
        <lane id=":111_3_0" index="0" disallow="pedestrian tram rail_urban rail rail_electric rail_fast ship" speed="6.47" length="9.03" width="3.20" shape="890.71,3861.30 893.18,3861.51 895.11,3860.86 896.50,3859.38 897.35,3857.05"/>
    </edge>
    <edge id=":111_4" function="internal">
        <lane id=":111_4_0" index="0" disallow="pedestrian tram rail_urban rail rail_electric rail_fast ship" speed="8.09" length="14.20" width="3.20" shape="890.71,3861.30 894.36,3862.69 896.73,3864.89 897.82,3867.91 897.63,3871.75"/>
    </edge>
    <edge id=":111_5" function="internal">
        <lane id=":111_5_0" index="0" disallow="pedestrian tram rail_urban rail rail_electric rail_fast ship" speed="3.65" length="4.67" width="3.20" shape="890.71,3861.30 891.70,3862.35 891.91,3863.22 891.35,3863.91 890.00,3864.43"/>
    </edge>
    <edge id=":111_6" function="internal">
        <lane id=":111_6_0" index="0" disallow="pedestrian tram rail_urban rail rail_electric rail_fast ship" speed="6.61" length="9.15" width="3.20" shape="894.49,3871.14 894.61,3868.67 893.90,3866.73 892.36,3865.32 890.00,3864.43"/>
    </edge>
    <edge id=":111_7" function="internal">
        <lane id=":111_7_0" index="0" disallow="pedestrian tram rail_urban rail rail_electric rail_fast ship" speed="13.49" length="14.38" width="3.20" shape="894.49,3871.14 897.35,3857.05"/>
    </edge>
    <edge id=":111_8" function="internal">
        <lane id=":111_8_0" index="0" disallow="pedestrian tram rail_urban rail rail_electric rail_fast ship" speed="3.65" length="1.44" width="3.20" shape="894.49,3871.14 895.50,3870.11"/>
    </edge>
    <edge id=":111_11" function="internal">
        <lane id=":111_11_0" index="0" disallow="pedestrian tram rail_urban rail rail_electric rail_fast ship" speed="3.65" length="3.23" width="3.20" shape="895.50,3870.11 896.36,3869.87 897.07,3870.42 897.63,3871.75"/>
    </edge>
    <edge id=":112_0" function="internal">
        <lane id=":112_0_0" index="0" disallow="pedestrian tram rail_urban rail rail_electric rail_fast ship" speed="3.65" length="4.67" width="3.20" shape="839.58,3852.97 838.59,3851.92 838.38,3851.05 838.95,3850.36 840.29,3849.85"/>
    </edge>
    <edge id=":113_0" function="internal">
        <lane id=":113_0_0" index="0" disallow="pedestrian tram rail_urban rail rail_electric rail_fast ship" speed="13.49" length="14.49" width="3.20" shape="915.92,3783.71 913.07,3797.92"/>
    </edge>
    <edge id=":113_1" function="internal">
        <lane id=":113_1_0" index="0" disallow="pedestrian tram rail_urban rail rail_electric rail_fast ship" speed="8.03" length="4.12" width="3.20" shape="915.92,3783.71 914.66,3787.38 914.50,3787.55"/>
    </edge>
    <edge id=":113_2" function="internal">
        <lane id=":113_2_0" index="0" disallow="pedestrian tram rail_urban rail rail_electric rail_fast ship" speed="3.65" length="1.44" width="3.20" shape="915.92,3783.71 914.91,3784.74"/>
    </edge>
    <edge id=":113_9" function="internal">
        <lane id=":113_9_0" index="0" disallow="pedestrian tram rail_urban rail rail_electric rail_fast ship" speed="8.03" length="10.13" width="3.20" shape="914.50,3787.55 912.51,3789.77 909.47,3790.88 905.55,3790.71"/>
    </edge>
    <edge id=":113_10" function="internal">
        <lane id=":113_10_0" index="0" disallow="pedestrian tram rail_urban rail rail_electric rail_fast ship" speed="3.65" length="3.23" width="3.20" shape="914.91,3784.74 914.05,3784.98 913.34,3784.44 912.78,3783.11"/>
    </edge>
    <edge id=":113_3" function="internal">
        <lane id=":113_3_0" index="0" disallow="pedestrian tram rail_urban rail rail_electric rail_fast ship" speed="6.55" length="9.11" width="3.20" shape="906.13,3787.57 908.65,3787.68 910.59,3786.97 911.97,3785.45 912.78,3783.11"/>
    </edge>
    <edge id=":113_4" function="internal">
        <lane id=":113_4_0" index="0" disallow="pedestrian tram rail_urban rail rail_electric rail_fast ship" speed="7.96" length="14.29" width="3.20" shape="906.13,3787.57 909.86,3788.82 912.25,3790.96 913.33,3794.00 913.07,3797.92"/>
    </edge>
    <edge id=":113_5" function="internal">
        <lane id=":113_5_0" index="0" disallow="pedestrian tram rail_urban rail rail_electric rail_fast ship" speed="3.65" length="4.67" width="3.20" shape="906.13,3787.57 907.17,3788.57 907.42,3789.43 906.88,3790.15 905.55,3790.71"/>
    </edge>
    <edge id=":113_6" function="internal">
        <lane id=":113_6_0" index="0" disallow="pedestrian tram rail_urban rail rail_electric rail_fast ship" speed="6.45" length="9.03" width="3.20" shape="909.94,3797.26 910.10,3794.78 909.42,3792.86 907.91,3791.51 905.55,3790.71"/>
    </edge>
    <edge id=":113_7" function="internal">
        <lane id=":113_7_0" index="0" disallow="pedestrian tram rail_urban rail rail_electric rail_fast ship" speed="13.49" length="14.43" width="3.20" shape="909.94,3797.26 912.78,3783.11"/>
    </edge>
    <edge id=":113_8" function="internal">
        <lane id=":113_8_0" index="0" disallow="pedestrian tram rail_urban rail rail_electric rail_fast ship" speed="3.65" length="1.44" width="3.20" shape="909.94,3797.26 910.97,3796.25"/>
    </edge>
    <edge id=":113_11" function="internal">
        <lane id=":113_11_0" index="0" disallow="pedestrian tram rail_urban rail rail_electric rail_fast ship" speed="3.65" length="3.23" width="3.20" shape="910.97,3796.25 911.83,3796.02 912.53,3796.58 913.07,3797.92"/>
    </edge>
    <edge id=":114_0" function="internal">
        <lane id=":114_0_0" index="0" disallow="pedestrian tram rail_urban rail rail_electric rail_fast ship" speed="3.65" length="4.67" width="3.20" shape="994.77,3133.76 995.80,3134.76 996.05,3135.62 995.52,3136.34 994.20,3136.91"/>
    </edge>
    <edge id=":115_0" function="internal">
        <lane id=":115_0_0" index="0" disallow="pedestrian tram rail_urban rail rail_electric rail_fast ship" speed="6.40" length="9.04" width="3.20" shape="993.25,3136.74 990.76,3136.65 988.87,3137.39 987.60,3138.96 986.93,3141.37"/>
    </edge>
    <edge id=":115_1" function="internal">
        <lane id=":115_1_0" index="0" disallow="pedestrian tram rail_urban rail rail_electric rail_fast ship" speed="9.10" length="14.41" width="3.20" shape="993.25,3136.74 979.08,3134.16"/>
    </edge>
    <edge id=":115_2" function="internal">
        <lane id=":115_2_0" index="0" disallow="pedestrian tram rail_urban rail rail_electric rail_fast ship" speed="3.65" length="1.44" width="3.20" shape="993.25,3136.74 992.21,3135.74"/>
    </edge>
    <edge id=":115_9" function="internal">
        <lane id=":115_9_0" index="0" disallow="pedestrian tram rail_urban rail rail_electric rail_fast ship" speed="3.65" length="3.23" width="3.20" shape="992.21,3135.74 991.96,3134.88 992.50,3134.16 993.82,3133.59"/>
    </edge>
    <edge id=":115_3" function="internal">
        <lane id=":115_3_0" index="0" disallow="pedestrian tram rail_urban rail rail_electric rail_fast ship" speed="9.10" length="14.40" width="3.20" shape="979.65,3131.01 993.82,3133.59"/>
    </edge>
    <edge id=":115_4" function="internal">
        <lane id=":115_4_0" index="0" disallow="pedestrian tram rail_urban rail rail_electric rail_fast ship" speed="8.18" length="3.98" width="3.20" shape="979.65,3131.01 983.26,3132.24 983.38,3132.35"/>
    </edge>
    <edge id=":115_5" function="internal">
        <lane id=":115_5_0" index="0" disallow="pedestrian tram rail_urban rail rail_electric rail_fast ship" speed="3.65" length="1.44" width="3.20" shape="979.65,3131.01 980.69,3132.02"/>
    </edge>
    <edge id=":115_10" function="internal">
        <lane id=":115_10_0" index="0" disallow="pedestrian tram rail_urban rail rail_electric rail_fast ship" speed="8.18" length="10.29" width="3.20" shape="983.38,3132.35 985.68,3134.37 986.90,3137.41 986.93,3141.37"/>
    </edge>
    <edge id=":115_11" function="internal">
        <lane id=":115_11_0" index="0" disallow="pedestrian tram rail_urban rail rail_electric rail_fast ship" speed="3.65" length="3.23" width="3.20" shape="980.69,3132.02 980.94,3132.88 980.40,3133.59 979.08,3134.16"/>
    </edge>
    <edge id=":115_6" function="internal">
        <lane id=":115_6_0" index="0" disallow="pedestrian tram rail_urban rail rail_electric rail_fast ship" speed="6.72" length="9.30" width="3.20" shape="983.76,3140.96 983.75,3138.36 982.96,3136.36 981.40,3134.96 979.08,3134.16"/>
    </edge>
    <edge id=":115_7" function="internal">
        <lane id=":115_7_0" index="0" disallow="pedestrian tram rail_urban rail rail_electric rail_fast ship" speed="7.91" length="14.39" width="3.20" shape="983.76,3140.96 984.82,3137.13 986.85,3134.63 989.85,3133.45 993.82,3133.59"/>
    </edge>
    <edge id=":115_8" function="internal">
        <lane id=":115_8_0" index="0" disallow="pedestrian tram rail_urban rail rail_electric rail_fast ship" speed="3.65" length="4.67" width="3.20" shape="983.76,3140.96 984.71,3139.87 985.55,3139.57 986.29,3140.07 986.93,3141.37"/>
    </edge>
    <edge id=":116_0" function="internal">